CaseAStar/case.raw
0,100.0,33,0,0,50.0
GRID OPTIMIZATION COMPETITION CHALLENGE 2
INPUT DATA FILES ARE RAW JSON CON
1,'            ',230.0,1,1,1,1,1.00,0.0,1.05,0.95,1.1,0.9
2,'            ',1.0,1,1,1,1,1.00,0.0,1.06544,0.95,1.1,0.9
3,'            ',115.0,1,1,1,1,1.00,0.0,1.05,0.95,1.1,0.9
4,'            ',115.0,1,1,1,1,1.00,0.0,1.05,0.95,1.1,0.9
5,'            ',115.0,1,1,1,1,1.00,0.0,1.05,0.95,1.1,0.9
6,'            ',230.0,1,1,1,1,1.00,0.0,1.05,0.95,1.1,0.9
7,'            ',115.0,1,1,1,1,1.00,0.0,1.05,0.95,1.1,0.9
8,'            ',115.0,1,1,1,1,1.00,0.0,1.05,0.95,1.1,0.9
9,'            ',115.0,2,1,1,1,1.00,0.0,1.05,0.95,1.1,0.9
10,'            ',115.0,1,1,1,1,1.00,0.0,1.05,0.95,1.1,0.9
11,'            ',115.0,1,1,1,1,1.00,0.0,1.05,0.95,1.1,0.9
12,'            ',230.0,1,1,1,1,1.00,0.0,1.05,0.95,1.1,0.9
13,'            ',230.0,1,1,1,1,1.00,0.0,1.05,0.95,1.1,0.9
14,'            ',345.0,1,1,1,1,1.00,0.0,1.06544,0.95,1.1,0.9
15,'            ',115.0,1,1,1,1,1.00,0.0,1.05,0.95,1.1,0.9
16,'            ',230.0,1,1,1,1,1.00,0.0,1.05,0.95,1.1,0.9
17,'            ',230.0,1,1,1,1,1.00,0.0,1.05,0.95,1.1,0.9
18,'            ',230.0,1,1,1,1,1.00,0.0,1.05,0.95,1.1,0.9
19,'            ',500.0,1,1,1,1,1.00,0.0,1.07859,0.95,1.1,0.9
20,'            ',1.0,1,1,1,1,1.00,0.0,1.06544,0.95,1.1,0.9
21,'            ',22.8,1,1,1,1,1.00,0.0,1.05,0.95,1.1,0.9
22,'            ',230.0,1,1,1,1,1.00,0.0,1.05,0.95,1.1,0.9
23,'            ',345.0,2,1,1,1,1.00,0.0,1.05,0.95,1.1,0.9
24,'            ',138.0,1,1,1,1,1.00,0.0,1.05,0.95,1.1,0.9
25,'            ',21.0,2,1,1,1,1.00,0.0,1.05,0.95,1.1,0.9
26,'            ',230.0,1,1,1,1,1.00,0.0,1.05,0.95,1.1,0.9
27,'            ',115.0,2,1,1,1,1.00,0.0,1.05,0.95,1.1,0.9
28,'            ',115.0,1,1,1,1,1.00,0.0,1.06652,0.95,1.1,0.9
29,'            ',115.0,1,1,1,1,1.00,0.0,1.05,0.95,1.1,0.9
30,'            ',161.0,1,1,1,1,1.00,0.0,1.05,0.95,1.1,0.9
31,'            ',230.0,1,1,1,1,1.00,0.0,1.05,0.95,1.1,0.9
32,'            ',161.0,1,1,1,1,1.00,0.0,1.05,0.95,1.1,0.9
33,'            ',115.0,1,1,1,1,1.00,0.0,1.05,0.95,1.1,0.9
34,'            ',115.0,1,1,1,1,1.00,0.0,1.05,0.95,1.1,0.9
35,'            ',230.0,1,1,1,1,1.00,0.0,1.05,0.95,1.1,0.9
36,'            ',138.0,1,1,1,1,1.00,0.0,1.05,0.95,1.1,0.9
37,'            ',230.0,1,1,1,1,1.00,0.0,1.05,0.95,1.1,0.9
38,'            ',230.0,1,1,1,1,1.00,0.0,1.05,0.95,1.1,0.9
39,'            ',230.0,1,1,1,1,1.00,0.0,1.06945,0.95,1.1,0.9
40,'            ',230.0,1,1,1,1,1.00,0.0,1.05,0.95,1.1,0.9
41,'            ',161.0,1,1,1,1,1.00,0.0,1.05,0.95,1.1,0.9
42,'            ',230.0,2,1,1,1,1.00,0.0,1.05,0.95,1.1,0.9
43,'            ',230.0,1,1,1,1,1.00,0.0,1.05,0.95,1.1,0.9
44,'            ',115.0,1,1,1,1,1.00,0.0,1.05,0.95,1.1,0.9
45,'            ',230.0,1,1,1,1,1.00,0.0,1.05,0.95,1.1,0.9
46,'            ',1.0,2,1,1,1,1.00,0.0,1.05,0.95,1.1,0.9
47,'            ',115.0,1,1,1,1,1.00,0.0,1.05,0.95,1.1,0.9
48,'            ',230.0,1,1,1,1,1.00,0.0,1.05,0.95,1.1,0.9
49,'            ',115.0,1,1,1,1,1.00,0.0,1.05,0.95,1.1,0.9
50,'            ',230.0,1,1,1,1,1.00,0.0,1.05,0.95,1.1,0.9
51,'            ',1.0,2,1,1,1,1.00,0.0,1.05,0.95,1.1,0.9
52,'            ',230.0,1,1,1,1,1.00,0.0,1.05,0.95,1.1,0.9
53,'            ',500.0,1,1,1,1,1.00,0.0,1.06544,0.95,1.1,0.9
54,'            ',230.0,1,1,1,1,1.00,0.0,1.05,0.95,1.1,0.9
55,'            ',25.0,1,1,1,1,1.00,0.0,1.05,0.95,1.1,0.9
56,'            ',115.0,1,1,1,1,1.00,0.0,1.05,0.95,1.1,0.9
57,'            ',12.0,1,1,1,1,1.00,0.0,1.05,0.95,1.1,0.9
58,'            ',115.0,1,1,1,1,1.00,0.0,1.05,0.95,1.1,0.9
59,'            ',115.0,1,1,1,1,1.00,0.0,1.05,0.95,1.1,0.9
60,'            ',25.0,2,1,1,1,1.00,0.0,1.05,0.95,1.1,0.9
61,'            ',22.0,1,1,1,1,1.00,0.0,1.05,0.95,1.1,0.9
62,'            ',115.0,1,1,1,1,1.00,0.0,1.05,0.95,1.1,0.9
63,'            ',115.0,1,1,1,1,1.00,0.0,1.05,0.95,1.1,0.9
64,'            ',115.0,1,1,1,1,1.00,0.0,1.05,0.95,1.1,0.9
65,'            ',25.0,1,1,1,1,1.00,0.0,1.05,0.95,1.1,0.9
66,'            ',115.0,1,1,1,1,1.00,0.0,1.05,0.95,1.1,0.9
67,'            ',115.0,1,1,1,1,1.00,0.0,1.05,0.95,1.1,0.9
68,'            ',12.0,1,1,1,1,1.00,0.0,1.05,0.95,1.1,0.9
69,'            ',115.0,1,1,1,1,1.00,0.0,1.05,0.95,1.1,0.9
70,'            ',34.5,2,1,1,1,1.00,0.0,1.05,0.95,1.1,0.9
71,'            ',1.0,1,1,1,1,1.00,0.0,1.05,0.95,1.1,0.9
72,'            ',345.0,1,1,1,1,1.00,0.0,1.05,0.95,1.1,0.9
73,'            ',765.0,2,1,1,1,1.00,0.0,1.05,0.95,1.1,0.9
74,'            ',138.0,1,1,1,1,1.00,0.0,1.05,0.95,1.1,0.9
75,'            ',345.0,3,1,1,1,1.00,0.0,1.05,0.95,1.1,0.9
76,'            ',345.0,1,1,1,1,1.00,0.0,1.05,0.95,1.1,0.9
77,'            ',138.0,1,1,1,1,1.00,0.0,1.05,0.95,1.1,0.9
78,'            ',138.0,2,1,1,1,1.00,0.0,1.05,0.95,1.1,0.9
79,'            ',138.0,1,1,1,1,1.00,0.0,1.05,0.95,1.1,0.9
80,'            ',18.0,1,1,1,1,1.00,0.0,1.05,0.95,1.1,0.9
81,'            ',138.0,1,1,1,1,1.00,0.0,1.05,0.95,1.1,0.9
82,'            ',13.8,1,1,1,1,1.00,0.0,1.05,0.95,1.1,0.9
83,'            ',345.0,1,1,1,1,1.00,0.0,1.05,0.95,1.1,0.9
84,'            ',345.0,1,1,1,1,1.00,0.0,1.05,0.95,1.1,0.9
85,'            ',138.0,1,1,1,1,1.00,0.0,1.05,0.95,1.1,0.9
86,'            ',138.0,1,1,1,1,1.00,0.0,1.05,0.95,1.1,0.9
87,'            ',345.0,1,1,1,1,1.00,0.0,1.05,0.95,1.1,0.9
88,'            ',345.0,1,1,1,1,1.00,0.0,1.05,0.95,1.1,0.9
89,'            ',345.0,1,1,1,1,1.00,0.0,1.05,0.95,1.1,0.9
90,'            ',138.0,1,1,1,1,1.00,0.0,1.05,0.95,1.1,0.9
91,'            ',138.0,1,1,1,1,1.00,0.0,1.05,0.95,1.1,0.9
92,'            ',138.0,1,1,1,1,1.00,0.0,1.05,0.95,1.1,0.9
93,'            ',345.0,1,1,1,1,1.00,0.0,1.05,0.95,1.1,0.9
94,'            ',138.0,1,1,1,1,1.00,0.0,1.05,0.95,1.1,0.9
95,'            ',345.0,1,1,1,1,1.00,0.0,1.05,0.95,1.1,0.9
96,'            ',138.0,2,1,1,1,1.00,0.0,1.05,0.95,1.1,0.9
97,'            ',138.0,1,1,1,1,1.00,0.0,1.05,0.95,1.1,0.9
98,'            ',138.0,1,1,1,1,1.00,0.0,1.05,0.95,1.1,0.9
99,'            ',138.0,1,1,1,1,1.00,0.0,1.05,0.95,1.1,0.9
100,'            ',1.0,1,1,1,1,1.00,0.0,1.05,0.95,1.1,0.9
101,'            ',345.0,1,1,1,1,1.00,0.0,1.05,0.95,1.1,0.9
102,'            ',138.0,1,1,1,1,1.00,0.0,1.05,0.95,1.1,0.9
103,'            ',138.0,1,1,1,1,1.00,0.0,1.05,0.95,1.1,0.9
104,'            ',345.0,1,1,1,1,1.00,0.0,1.05,0.95,1.1,0.9
105,'            ',345.0,1,1,1,1,1.00,0.0,1.05,0.95,1.1,0.9
106,'            ',13.8,1,1,1,1,1.00,0.0,1.05,0.95,1.1,0.9
107,'            ',138.0,1,1,1,1,1.00,0.0,1.05,0.95,1.1,0.9
108,'            ',345.0,1,1,1,1,1.00,0.0,1.05,0.95,1.1,0.9
109,'            ',345.0,1,1,1,1,1.00,0.0,1.05,0.95,1.1,0.9
110,'            ',138.0,1,1,1,1,1.00,0.0,1.05,0.95,1.1,0.9
111,'            ',138.0,1,1,1,1,1.00,0.0,1.05,0.95,1.1,0.9
112,'            ',138.0,2,1,1,1,1.00,0.0,1.05,0.95,1.1,0.9
113,'            ',345.0,1,1,1,1,1.00,0.0,1.05,0.95,1.1,0.9
114,'            ',138.0,1,1,1,1,1.00,0.0,1.05,0.95,1.1,0.9
115,'            ',138.0,1,1,1,1,1.00,0.0,1.05,0.95,1.1,0.9
116,'            ',138.0,2,1,1,1,1.00,0.0,1.05,0.95,1.1,0.9
117,'            ',13.8,1,1,1,1,1.00,0.0,1.05,0.95,1.1,0.9
118,'            ',345.0,1,1,1,1,1.00,0.0,1.05,0.95,1.1,0.9
119,'            ',24.0,1,1,1,1,1.00,0.0,1.05,0.95,1.1,0.9
120,'            ',138.0,1,1,1,1,1.00,0.0,1.05,0.95,1.1,0.9
121,'            ',345.0,1,1,1,1,1.00,0.0,1.05,0.95,1.1,0.9
122,'            ',138.0,1,1,1,1,1.00,0.0,1.05,0.95,1.1,0.9
123,'            ',138.0,1,1,1,1,1.00,0.0,1.05,0.95,1.1,0.9
124,'            ',138.0,1,1,1,1,1.00,0.0,1.05,0.95,1.1,0.9
125,'            ',18.0,1,1,1,1,1.00,0.0,1.05,0.95,1.1,0.9
126,'            ',18.0,1,1,1,1,1.00,0.0,1.05,0.95,1.1,0.9
127,'            ',345.0,1,1,1,1,1.00,0.0,1.05,0.95,1.1,0.9
128,'            ',138.0,1,1,1,1,1.00,0.0,1.05,0.95,1.1,0.9
129,'            ',24.0,2,1,1,1,1.00,0.0,1.05,0.95,1.1,0.9
130,'            ',138.0,1,1,1,1,1.00,0.0,1.05,0.95,1.1,0.9
131,'            ',138.0,1,1,1,1,1.00,0.0,1.05,0.95,1.1,0.9
132,'            ',138.0,1,1,1,1,1.00,0.0,1.05,0.95,1.1,0.9
133,'            ',138.0,1,1,1,1,1.00,0.0,1.05,0.95,1.1,0.9
134,'            ',138.0,1,1,1,1,1.00,0.0,1.05,0.95,1.1,0.9
135,'            ',345.0,1,1,1,1,1.00,0.0,1.05,0.95,1.1,0.9
136,'            ',138.0,1,1,1,1,1.00,0.0,1.05,0.95,1.1,0.9
137,'            ',345.0,1,1,1,1,1.00,0.0,1.05,0.95,1.1,0.9
138,'            ',138.0,1,1,1,1,1.00,0.0,1.05,0.95,1.1,0.9
139,'            ',138.0,1,1,1,1,1.00,0.0,1.05,0.95,1.1,0.9
140,'            ',13.8,1,1,1,1,1.00,0.0,1.05,0.95,1.1,0.9
141,'            ',345.0,2,1,1,1,1.00,0.0,1.05,0.95,1.1,0.9
142,'            ',345.0,1,1,1,1,1.00,0.0,1.05,0.95,1.1,0.9
143,'            ',345.0,1,1,1,1,1.00,0.0,1.05,0.95,1.1,0.9
144,'            ',138.0,1,1,1,1,1.00,0.0,1.05,0.95,1.1,0.9
145,'            ',138.0,1,1,1,1,1.00,0.0,1.05,0.95,1.1,0.9
146,'            ',138.0,1,1,1,1,1.00,0.0,1.05,0.95,1.1,0.9
147,'            ',138.0,2,1,1,1,1.00,0.0,1.05,0.95,1.1,0.9
148,'            ',138.0,1,1,1,1,1.00,0.0,1.05,0.95,1.1,0.9
149,'            ',138.0,1,1,1,1,1.00,0.0,1.05,0.95,1.1,0.9
150,'            ',138.0,1,1,1,1,1.00,0.0,1.05,0.95,1.1,0.9
151,'            ',230.0,1,1,1,1,1.00,0.0,1.05,0.95,1.1,0.9
152,'            ',25.0,2,1,1,1,1.00,0.0,1.05,0.95,1.1,0.9
153,'            ',115.0,1,1,1,1,1.00,0.0,1.05,0.95,1.1,0.9
154,'            ',46.0,2,1,1,1,1.00,0.0,1.05,0.95,1.1,0.9
155,'            ',115.0,1,1,1,1,1.00,0.0,1.05,0.95,1.1,0.9
156,'            ',115.0,1,1,1,1,1.00,0.0,1.05,0.95,1.1,0.9
157,'            ',46.0,1,1,1,1,1.00,0.0,1.05,0.95,1.1,0.9
158,'            ',115.0,1,1,1,1,1.00,0.0,1.05,0.95,1.1,0.9
159,'            ',46.0,1,1,1,1,1.00,0.0,1.05,0.95,1.1,0.9
160,'            ',230.0,1,1,1,1,1.00,0.0,1.05,0.95,1.1,0.9
161,'            ',46.0,1,1,1,1,1.00,0.0,1.05,0.95,1.1,0.9
162,'            ',115.0,1,1,1,1,1.00,0.0,1.05,0.95,1.1,0.9
163,'            ',13.8,1,1,1,1,1.00,0.0,1.05,0.95,1.1,0.9
164,'            ',115.0,1,1,1,1,1.00,0.0,1.05,0.95,1.1,0.9
165,'            ',115.0,1,1,1,1,1.00,0.0,1.05,0.95,1.1,0.9
166,'            ',115.0,1,1,1,1,1.00,0.0,1.05,0.95,1.1,0.9
167,'            ',230.0,1,1,1,1,1.00,0.0,1.05,0.95,1.1,0.9
168,'            ',115.0,1,1,1,1,1.00,0.0,1.05,0.95,1.1,0.9
169,'            ',115.0,1,1,1,1,1.00,0.0,1.05,0.95,1.1,0.9
170,'            ',115.0,1,1,1,1,1.00,0.0,1.05,0.95,1.1,0.9
171,'            ',230.0,1,1,1,1,1.00,0.0,1.05,0.95,1.1,0.9
172,'            ',115.0,1,1,1,1,1.00,0.0,1.05,0.95,1.1,0.9
173,'            ',46.0,1,1,1,1,1.00,0.0,1.05,0.95,1.1,0.9
174,'            ',115.0,1,1,1,1,1.00,0.0,1.05,0.95,1.1,0.9
175,'            ',115.0,1,1,1,1,1.00,0.0,1.05,0.95,1.1,0.9
176,'            ',115.0,1,1,1,1,1.00,0.0,1.05,0.95,1.1,0.9
177,'            ',230.0,1,1,1,1,1.00,0.0,1.05,0.95,1.1,0.9
178,'            ',34.5,1,1,1,1,1.00,0.0,1.05,0.95,1.1,0.9
179,'            ',13.8,1,1,1,1,1.00,0.0,1.05,0.95,1.1,0.9
180,'            ',115.0,1,1,1,1,1.00,0.0,1.05,0.95,1.1,0.9
181,'            ',46.0,1,1,1,1,1.00,0.0,1.05,0.95,1.1,0.9
182,'            ',34.5,1,1,1,1,1.00,0.0,1.05,0.95,1.1,0.9
183,'            ',115.0,1,1,1,1,1.00,0.0,1.05,0.95,1.1,0.9
184,'            ',46.0,1,1,1,1,1.00,0.0,1.05,0.95,1.1,0.9
185,'            ',115.0,1,1,1,1,1.00,0.0,1.05,0.95,1.1,0.9
186,'            ',230.0,1,1,1,1,1.00,0.0,1.05,0.95,1.1,0.9
187,'            ',115.0,1,1,1,1,1.00,0.0,1.05,0.95,1.1,0.9
188,'            ',115.0,1,1,1,1,1.00,0.0,1.05,0.95,1.1,0.9
189,'            ',230.0,1,1,1,1,1.00,0.0,1.05,0.95,1.1,0.9
190,'            ',46.0,1,1,1,1,1.00,0.0,1.05,0.95,1.1,0.9
191,'            ',22.0,1,1,1,1,1.00,0.0,1.05,0.95,1.1,0.9
192,'            ',34.5,1,1,1,1,1.00,0.0,1.05,0.95,1.1,0.9
193,'            ',115.0,1,1,1,1,1.00,0.0,1.05,0.95,1.1,0.9
194,'            ',46.0,1,1,1,1,1.00,0.0,1.05,0.95,1.1,0.9
195,'            ',46.0,1,1,1,1,1.00,0.0,1.05,0.95,1.1,0.9
196,'            ',34.5,1,1,1,1,1.00,0.0,1.05,0.95,1.1,0.9
197,'            ',46.0,1,1,1,1,1.00,0.0,1.05,0.95,1.1,0.9
198,'            ',115.0,1,1,1,1,1.00,0.0,1.05,0.95,1.1,0.9
199,'            ',34.5,1,1,1,1,1.00,0.0,1.05,0.95,1.1,0.9
200,'            ',46.0,1,1,1,1,1.00,0.0,1.05,0.95,1.1,0.9
...
0 / END OF BUS DATA BEGIN LOAD DATA
4,'1',0,1,1,0.99999976,0.99999976,0.0,0.0,0.0,0.0,1,1,0
5,'1',1,1,1,112.958,-26.822,0.0,0.0,0.0,0.0,1,1,0
7,'1',0,1,1,0.99999976,0.99999976,0.0,0.0,0.0,0.0,1,1,0
9,'1',1,1,1,100.773,-42.513,0.0,0.0,0.0,0.0,1,1,0
11,'1',1,1,1,42.282,5.533,0.0,0.0,0.0,0.0,1,1,0
12,'99',0,1,1,22.89099998,2.788,0.0,0.0,0.0,0.0,1,1,0
14,'99',0,1,1,259.475,-10.863,0.0,0.0,0.0,0.0,1,1,0
15,'1',0,1,1,0.99999976,0.99999976,0.0,0.0,0.0,0.0,1,1,0
16,'1',1,1,1,55.382,15.802,0.0,0.0,0.0,0.0,1,1,0
16,'2',1,1,1,62.229,0.712,0.0,0.0,0.0,0.0,1,1,0
16,'99',0,1,1,6.15699981,-17.66299946,0.0,0.0,0.0,0.0,1,1,0
17,'1',1,1,1,26.673,7.244,0.0,0.0,0.0,0.0,1,1,0
18,'1',1,1,1,38.081,2.859,0.0,0.0,0.0,0.0,1,1,0
21,'1',0,1,1,0.99999976,0.99999976,0.0,0.0,0.0,0.0,1,1,0
25,'1',0,1,1,0.99999976,0.99999976,0.0,0.0,0.0,0.0,1,1,0
26,'1',1,1,1,100.532,-20.512,0.0,0.0,0.0,0.0,1,1,0
27,'1',1,1,1,139.936,-38.636,0.0,0.0,0.0,0.0,1,1,0
28,'1',0,1,1,0.99999976,0.99999976,0.0,0.0,0.0,0.0,1,1,0
30,'1',1,1,1,81.381,24.638,0.0,0.0,0.0,0.0,1,1,0
32,'1',1,1,1,62.784,16.256,0.0,0.0,0.0,0.0,1,1,0
32,'99',0,1,1,19.61399995,-35.5169999,0.0,0.0,0.0,0.0,1,1,0
33,'1',0,1,1,0.99999976,0.99999976,0.0,0.0,0.0,0.0,1,1,0
34,'1',1,1,1,96.915,77.402,0.0,0.0,0.0,0.0,1,1,0
35,'1',1,1,1,28.542,5.107,0.0,0.0,0.0,0.0,1,1,0
42,'1',1,1,1,33.761,5.625,0.0,0.0,0.0,0.0,1,1,0
44,'1',0,1,1,0.99999976,0.99999976,0.0,0.0,0.0,0.0,1,1,0
47,'1',1,1,1,141.537,-33.307,0.0,0.0,0.0,0.0,1,1,0
49,'1',1,1,1,31.198,3.941,0.0,0.0,0.0,0.0,1,1,0
50,'1',1,1,1,22.20499997,-5.04199999,0.0,0.0,0.0,0.0,1,1,0
52,'1',1,1,1,21.57599997,2.526,0.0,0.0,0.0,0.0,1,1,0
54,'1',1,1,1,74.312,3.136,0.0,0.0,0.0,0.0,1,1,0
54,'2',1,1,1,115.724,8.78,0.0,0.0,0.0,0.0,1,1,0
59,'99',1,1,1,10.54899985,-8.98599988,0.0,0.0,0.0,0.0,1,1,0
61,'1',0,1,1,0.99999976,0.99999976,0.0,0.0,0.0,0.0,1,1,0
63,'1',1,1,1,9.39999984,-0.51799999,0.0,0.0,0.0,0.0,1,1,0
66,'1',1,1,1,3.75599979,-5.84699967,0.0,0.0,0.0,0.0,1,1,0
74,'1',1,1,1,65.606,30.013,0.0,0.0,0.0,0.0,1,1,0
75,'99',1,1,1,27.509,-14.278,0.0,0.0,0.0,0.0,1,1,0
77,'1',1,1,1,5.0419998,1.39699994,0.0,0.0,0.0,0.0,1,1,0
78,'1',1,1,1,10.36199985,-0.60099999,0.0,0.0,0.0,0.0,1,1,0
79,'1',1,1,1,51.894,-1.369,0.0,0.0,0.0,0.0,1,1,0
81,'1',1,1,1,19.78099995,4.45899999,0.0,0.0,0.0,0.0,1,1,0
83,'1',0,1,1,0.99999976,0.99999976,0.0,0.0,0.0,0.0,1,1,0
85,'1',1,1,1,11.73199987,0.78599999,0.0,0.0,0.0,0.0,1,1,0
85,'2',1,1,1,15.88599991,1.71199999,0.0,0.0,0.0,0.0,1,1,0
86,'1',1,1,1,43.725,5.274,0.0,0.0,0.0,0.0,1,1,0
87,'99',1,1,1,440.096,7.094,0.0,0.0,0.0,0.0,1,1,0
88,'99',1,1,1,49.09,12.78,0.0,0.0,0.0,0.0,1,1,0
89,'99',1,1,1,175.569,2.033,0.0,0.0,0.0,0.0,1,1,0
90,'1',1,1,1,32.114,8.836,0.0,0.0,0.0,0.0,1,1,0
91,'1',1,1,1,9.32599984,2.21999996,0.0,0.0,0.0,0.0,1,1,0
92,'1',1,1,1,16.83899992,7.56799996,0.0,0.0,0.0,0.0,1,1,0
92,'2',1,1,1,16.83899992,7.56799996,0.0,0.0,0.0,0.0,1,1,0
92,'99',1,1,1,2.54399977,-19.51199827,0.0,0.0,0.0,0.0,1,1,0
93,'99',1,1,1,126.715,-21.509,0.0,0.0,0.0,0.0,1,1,0
94,'1',1,1,1,19.07799994,3.86699999,0.0,0.0,0.0,0.0,1,1,0
96,'1',1,1,1,14.9139999,3.16399998,0.0,0.0,0.0,0.0,1,1,0
97,'99',1,1,1,141.874,-28.757,0.0,0.0,0.0,0.0,1,1,0
98,'1',1,1,1,26.007,9.641,0.0,0.0,0.0,0.0,1,1,0
99,'1',1,1,1,37.35,12.879,0.0,0.0,0.0,0.0,1,1,0
99,'99',0,1,1,6.58899982,-2.89799992,0.0,0.0,0.0,0.0,1,1,0
103,'1',1,1,1,29.292,-24.573,0.0,0.0,0.0,0.0,1,1,0
107,'1',1,1,1,4.17299979,2.22999989,0.0,0.0,0.0,0.0,1,1,0
109,'99',1,1,1,81.731,-8.477,0.0,0.0,0.0,0.0,1,1,0
112,'1',1,1,1,21.75099997,27.68199996,0.0,0.0,0.0,0.0,1,1,0
113,'99',1,1,1,631.406,-96.165,0.0,0.0,0.0,0.0,1,1,0
114,'99',1,1,1,70.596,-16.946,0.0,0.0,0.0,0.0,1,1,0
115,'1',1,1,1,30.31,13.082,0.0,0.0,0.0,0.0,1,1,0
116,'1',1,1,1,26.683,1.48,0.0,0.0,0.0,0.0,1,1,0
117,'1',1,1,1,14.51599989,-2.99799998,0.0,0.0,0.0,0.0,1,1,0
119,'1',0,1,1,0.99999976,0.99999976,0.0,0.0,0.0,0.0,1,1,0
122,'1',1,1,1,2.78499978,-9.49299924,0.0,0.0,0.0,0.0,1,1,0
123,'1',1,1,1,33.057,1.721,0.0,0.0,0.0,0.0,1,1,0
128,'1',1,1,1,33.687,5.542,0.0,0.0,0.0,0.0,1,1,0
128,'2',0,1,1,0.99999976,0.99999976,0.0,0.0,0.0,0.0,1,1,0
129,'1',0,1,1,0.99999976,0.99999976,0.0,0.0,0.0,0.0,1,1,0
130,'1',0,1,1,0.99999976,0.99999976,0.0,0.0,0.0,0.0,1,1,0
131,'1',1,1,1,3.59899979,1.10999993,0.0,0.0,0.0,0.0,1,1,0
132,'1',1,1,1,113.263,14.479,0.0,0.0,0.0,0.0,1,1,0
133,'1',1,1,1,41.208,17.209,0.0,0.0,0.0,0.0,1,1,0
134,'1',1,1,1,21.75099997,12.96199998,0.0,0.0,0.0,0.0,1,1,0
136,'99',1,1,1,2.88899978,-10.70499918,0.0,0.0,0.0,0.0,1,1,0
138,'1',1,1,1,29.125,3.386,0.0,0.0,0.0,0.0,1,1,0
139,'1',0,1,1,0.99999976,0.99999976,0.0,0.0,0.0,0.0,1,1,0
140,'1',1,1,1,14.52599989,-2.99799998,0.0,0.0,0.0,0.0,1,1,0
144,'1',1,1,1,11.65799987,0.73099999,0.0,0.0,0.0,0.0,1,1,0
145,'1',1,1,1,32.317,9.687,0.0,0.0,0.0,0.0,1,1,0
146,'1',1,1,1,1.54499976,3.70999944,0.0,0.0,0.0,0.0,1,1,0
146,'2',1,1,1,3.98799979,5.6069997,0.0,0.0,0.0,0.0,1,1,0
147,'1',1,1,1,17.05099992,3.96899998,0.0,0.0,0.0,0.0,1,1,0
148,'1',1,1,1,28.024,14.156,0.0,0.0,0.0,0.0,1,1,0
149,'1',1,1,1,17.25499992,10.87099995,0.0,0.0,0.0,0.0,1,1,0
149,'2',1,1,1,17.92999993,8.54899997,0.0,0.0,0.0,0.0,1,1,0
150,'1',1,1,1,0.96199976,2.93299927,0.0,0.0,0.0,0.0,1,1,0
153,'1',1,1,1,14.7109999,5.85699996,0.0,0.0,0.0,0.0,1,1,0
153,'2',1,1,1,13.58199989,-0.91599999,0.0,0.0,0.0,0.0,1,1,0
154,'1',1,1,1,36.027,-0.712,0.0,0.0,0.0,0.0,1,1,0
156,'1',1,1,1,8.99299984,1.30499998,0.0,0.0,0.0,0.0,1,1,0
159,'1',1,1,1,7.11499982,1.60099996,0.0,0.0,0.0,0.0,1,1,0
160,'99',0,1,1,131.274,-62.291,0.0,0.0,0.0,0.0,1,1,0
161,'1',1,1,1,16.51499991,6.05999997,0.0,0.0,0.0,0.0,1,1,0
162,'1',1,1,1,4.23699979,1.01799995,0.0,0.0,0.0,0.0,1,1,0
162,'2',1,1,1,8.12299983,1.45299997,0.0,0.0,0.0,0.0,1,1,0
162,'3',1,1,1,8.31799983,2.28499995,0.0,0.0,0.0,0.0,1,1,0
163,'1',1,1,1,5.88399981,1.06399997,0.0,0.0,0.0,0.0,1,1,0
164,'1',1,1,1,7.90099983,-1.19399997,0.0,0.0,0.0,0.0,1,1,0
165,'1',1,1,1,12.34199987,0.453,0.0,0.0,0.0,0.0,1,1,0
165,'2',1,1,1,18.70799994,2.08199999,0.0,0.0,0.0,0.0,1,1,0
166,'1',1,1,1,7.14299982,-0.56399999,0.0,0.0,0.0,0.0,1,1,0
166,'2',1,1,1,6.20799981,0.74899998,0.0,0.0,0.0,0.0,1,1,0
168,'1',1,1,1,2.21099977,0.87899991,0.0,0.0,0.0,0.0,1,1,0
168,'2',1,1,1,4.32999979,-2.43299988,0.0,0.0,0.0,0.0,1,1,0
170,'1',1,1,1,8.90999984,0.87899998,0.0,0.0,0.0,0.0,1,1,0
173,'1',1,1,1,21.64999997,0.749,0.0,0.0,0.0,0.0,1,1,0
174,'1',0,1,1,0.99999976,0.99999976,0.0,0.0,0.0,0.0,1,1,0
176,'1',1,1,1,11.98099987,-4.02499996,0.0,0.0,0.0,0.0,1,1,0
176,'2',1,1,1,11.49999986,-1.26799999,0.0,0.0,0.0,0.0,1,1,0
177,'99',1,1,1,143.394,-29.945,0.0,0.0,0.0,0.0,1,1,0
180,'1',1,1,1,12.03699987,-1.16599999,0.0,0.0,0.0,0.0,1,1,0
180,'2',1,1,1,12.65699988,1.72099998,0.0,0.0,0.0,0.0,1,1,0
180,'99',1,1,1,23.30899998,-22.20199998,0.0,0.0,0.0,0.0,1,1,0
181,'1',1,1,1,8.06799983,-0.64799999,0.0,0.0,0.0,0.0,1,1,0
183,'1',1,1,1,5.60699981,-1.43399995,0.0,0.0,0.0,0.0,1,1,0
184,'1',1,1,1,10.90799986,2.15599997,0.0,0.0,0.0,0.0,1,1,0
187,'1',1,1,1,6.00499981,-1.42499995,0.0,0.0,0.0,0.0,1,1,0
188,'1',1,1,1,2.83999978,-2.09099984,0.0,0.0,0.0,0.0,1,1,0
188,'2',1,1,1,2.43299977,-2.06299981,0.0,0.0,0.0,0.0,1,1,0
190,'1',1,1,1,7.72499983,0.43499999,0.0,0.0,0.0,0.0,1,1,0
191,'1',0,1,1,0.99999976,0.99999976,0.0,0.0,0.0,0.0,1,1,0
193,'1',1,1,1,0.13899975,0.89699839,0.0,0.0,0.0,0.0,1,1,0
193,'99',1,1,1,87.672,-14.521,0.0,0.0,0.0,0.0,1,1,0
195,'1',1,1,1,7.97499983,-2.34099995,0.0,0.0,0.0,0.0,1,1,0
200,'1',1,1,1,10.93599986,-0.58299999,0.0,0.0,0.0,0.0,1,1,0
201,'1',1,1,1,6.66099982,2.28499994,0.0,0.0,0.0,0.0,1,1,0
203,'1',0,1,1,0.99999976,0.99999976,0.0,0.0,0.0,0.0,1,1,0
203,'2',1,1,1,3.60799979,-10.90799935,0.0,0.0,0.0,0.0,1,1,0
204,'99',0,1,1,67.773,-34.499,0.0,0.0,0.0,0.0,1,1,0
206,'1',0,1,1,0.99999976,0.99999976,0.0,0.0,0.0,0.0,1,1,0
207,'1',0,1,1,0.99999976,0.99999976,0.0,0.0,0.0,0.0,1,1,0
208,'1',1,1,1,13.59099989,0.074,0.0,0.0,0.0,0.0,1,1,0
214,'1',1,1,1,12.82299988,-0.324,0.0,0.0,0.0,0.0,1,1,0
214,'2',1,1,1,12.82299988,-0.324,0.0,0.0,0.0,0.0,1,1,0
215,'1',1,1,1,4.11699979,2.52599987,0.0,0.0,0.0,0.0,1,1,0
216,'1',1,1,1,13.76699989,2.29399998,0.0,0.0,0.0,0.0,1,1,0
216,'2',1,1,1,12.38799987,0.72199999,0.0,0.0,0.0,0.0,1,1,0
217,'1',1,1,1,22.36199997,12.84199998,0.0,0.0,0.0,0.0,1,1,0
218,'1',1,1,1,18.44799993,1.073,0.0,0.0,0.0,0.0,1,1,0
219,'1',1,1,1,8.65999984,5.0889999,0.0,0.0,0.0,0.0,1,1,0
220,'1',1,1,1,5.4959998,1.10999996,0.0,0.0,0.0,0.0,1,1,0
221,'1',1,1,1,15.74699991,2.96099998,0.0,0.0,0.0,0.0,1,1,0
221,'2',1,1,1,18.25399993,1.69299999,0.0,0.0,0.0,0.0,1,1,0
222,'1',1,1,1,3.75599979,-5.84699967,0.0,0.0,0.0,0.0,1,1,0
223,'1',1,1,1,6.33799981,0.19399999,0.0,0.0,0.0,0.0,1,1,0
226,'99',1,1,1,55.221,-10.549,0.0,0.0,0.0,0.0,1,1,0
227,'1',0,1,1,0.99999976,0.99999976,0.0,0.0,0.0,0.0,1,1,0
228,'1',1,1,1,15.0709999,5.29199996,0.0,0.0,0.0,0.0,1,1,0
229,'1',1,1,1,9.21499984,0.53699999,0.0,0.0,0.0,0.0,1,1,0
229,'2',1,1,1,13.72999989,1.83199998,0.0,0.0,0.0,0.0,1,1,0
231,'1',1,1,1,2.81299978,-2.25699982,0.0,0.0,0.0,0.0,1,1,0
233,'1',1,1,1,10.88999986,-0.176,0.0,0.0,0.0,0.0,1,1,0
235,'1',1,1,1,5.89399981,-0.52699998,0.0,0.0,0.0,0.0,1,1,0
236,'1',1,1,1,8.99299984,-0.76799999,0.0,0.0,0.0,0.0,1,1,0
239,'1',1,1,1,1.56399977,7.63299885,0.0,0.0,0.0,0.0,1,1,0
241,'99',1,1,1,20.21699995,-9.55699998,0.0,0.0,0.0,0.0,1,1,0
244,'1',1,1,1,20.14199995,0.185,0.0,0.0,0.0,0.0,1,1,0
246,'1',1,1,1,8.29899983,2.32199995,0.0,0.0,0.0,0.0,1,1,0
248,'1',1,1,1,9.99199985,2.35899996,0.0,0.0,0.0,0.0,1,1,0
249,'1',1,1,1,10.39899985,1.24899998,0.0,0.0,0.0,0.0,1,1,0
253,'1',1,1,1,35.167,6.615,0.0,0.0,0.0,0.0,1,1,0
254,'1',1,1,1,16.30199991,-1.49899999,0.0,0.0,0.0,0.0,1,1,0
256,'1',1,1,1,21.85299997,0.981,0.0,0.0,0.0,0.0,1,1,0
256,'2',1,1,1,21.85299997,0.981,0.0,0.0,0.0,0.0,1,1,0
259,'1',1,1,1,12.55499987,0.57399999,0.0,0.0,0.0,0.0,1,1,0
264,'1',1,1,1,11.04699986,-1.24899998,0.0,0.0,0.0,0.0,1,1,0
264,'2',1,1,1,11.04699986,-1.24899998,0.0,0.0,0.0,0.0,1,1,0
264,'3',1,1,1,11.04699986,-1.24899998,0.0,0.0,0.0,0.0,1,1,0
267,'1',1,1,1,18.54099993,0.324,0.0,0.0,0.0,0.0,1,1,0
267,'2',1,1,1,18.06899993,2.76599999,0.0,0.0,0.0,0.0,1,1,0
269,'1',1,1,1,61.174,9.252,0.0,0.0,0.0,0.0,1,1,0
273,'1',1,1,1,25.859,8.105,0.0,0.0,0.0,0.0,1,1,0
283,'1',1,1,1,16.12599991,1.27699999,0.0,0.0,0.0,0.0,1,1,0
284,'1',1,1,1,17.19899992,0.675,0.0,0.0,0.0,0.0,1,1,0
284,'2',1,1,1,17.19899992,0.675,0.0,0.0,0.0,0.0,1,1,0
284,'3',1,1,1,17.19899992,0.675,0.0,0.0,0.0,0.0,1,1,0
284,'4',1,1,1,17.19899992,0.675,0.0,0.0,0.0,0.0,1,1,0
287,'1',1,1,1,16.42199991,11.27799994,0.0,0.0,0.0,0.0,1,1,0
287,'2',1,1,1,16.42199991,11.27799994,0.0,0.0,0.0,0.0,1,1,0
291,'1',1,1,1,13.53599988,2.11899998,0.0,0.0,0.0,0.0,1,1,0
292,'99',1,1,1,301.845,72.305,0.0,0.0,0.0,0.0,1,1,0
294,'1',1,1,1,21.94599997,0.786,0.0,0.0,0.0,0.0,1,1,0
294,'2',1,1,1,21.94599997,0.786,0.0,0.0,0.0,0.0,1,1,0
296,'1',1,1,1,30.652,16.746,0.0,0.0,0.0,0.0,1,1,0
298,'1',1,1,1,41.125,11.417,0.0,0.0,0.0,0.0,1,1,0
298,'2',1,1,1,41.125,11.417,0.0,0.0,0.0,0.0,1,1,0
303,'1',1,1,1,19.98399995,0.925,0.0,0.0,0.0,0.0,1,1,0
309,'1',1,1,1,1.90599977,-8.18799901,0.0,0.0,0.0,0.0,1,1,0
312,'1',1,1,1,7.49399982,2.47999994,0.0,0.0,0.0,0.0,1,1,0
313,'1',1,1,1,7.53999982,12.37899971,0.0,0.0,0.0,0.0,1,1,0
313,'2',1,1,1,47.555,25.85,0.0,0.0,0.0,0.0,1,1,0
316,'1',1,1,1,19.16999994,-2.12799999,0.0,0.0,0.0,0.0,1,1,0
...
0 / END OF LOAD DATA BEGIN FIXED SHUNT DATA
12,'99',1,0.0,2.664
16,'99',1,0.0,-17.445
23,'99',1,0.0,10.787
32,'99',1,0.0,-34.159
66,'99',1,0.0,-15.861
99,'99',1,0.0,-2.847
110,'99',1,0.0,7.776
116,'99',1,0.0,51.25
131,'99',1,0.0,7.254
160,'99',1,0.0,-59.884
204,'99',1,0.0,-32.353
223,'99',1,0.0,12.54
225,'99',1,0.0,3.413
294,'99',1,0.0,-4.561
300,'99',1,0.0,-22.762
315,'99',1,0.0,20.519
319,'99',1,0.0,-24.136
331,'99',1,0.0,-40.033
373,'99',1,0.0,-42.075
380,'99',1,0.0,-7.745
413,'99',1,0.0,26.063
415,'99',1,0.0,18.111
417,'99',1,0.0,12.322
463,'99',1,0.0,5.565
469,'99',1,0.0,8.481
477,'99',1,0.0,4.788
490,'99',1,0.0,40.614
493,'99',1,0.0,-15.605
505,'99',1,0.0,11.031
511,'99',1,0.0,7.141
526,'99',1,0.0,58.406
536,'99',1,0.0,10.172
559,'99',1,0.0,-7.526
660,'99',1,0.0,131.363
666,'99',1,0.0,-1.426
678,'99',1,0.0,46.173
910,'99',1,0.0,-17.163
949,'99',1,0.0,-57.137
975,'99',1,0.0,-22.802
1026,'99',1,0.0,52.62
1065,'99',1,0.0,-17.869
1186,'99',1,0.0,-13.527
1206,'99',1,0.0,-21.227
1212,'99',1,0.0,7.441
1214,'99',1,0.0,-10.675
1261,'99',1,0.0,-26.327
1268,'99',1,0.0,-13.078
1326,'99',1,0.0,0.447
1366,'99',1,0.0,30.53
1367,'99',1,0.0,-85.711
1389,'99',1,0.0,21.371
1405,'99',1,0.0,-5.636
1469,'99',1,0.0,4.576
1472,'99',1,0.0,68.875
1490,'99',1,0.0,-11.341
1523,'99',1,0.0,-0.597
1596,'99',1,0.0,-2.77
1608,'99',1,0.0,107.695
1666,'99',1,0.0,35.076
1713,'99',1,0.0,44.457
1715,'99',1,0.0,28.052
1754,'99',1,0.0,9.137
1769,'99',1,0.0,137.513
1772,'99',1,0.0,18.26
1871,'99',1,0.0,109.182
1874,'99',1,0.0,17.981
1881,'99',1,0.0,-1.066
1899,'99',1,0.0,-55.276
1966,'99',1,0.0,10.11
1983,'99',1,0.0,89.017
1991,'99',1,0.0,-6.216
1992,'99',1,0.0,-63.017
1994,'99',1,0.0,125.504
2163,'99',1,0.0,-24.38
2185,'99',1,0.0,41.553
2192,'99',1,0.0,-22.419
2199,'99',1,0.0,-43.771
2208,'99',1,0.0,5.411
2230,'99',1,0.0,1.625
2242,'99',1,0.0,45.209
2252,'99',1,0.0,20.955
2303,'99',1,0.0,-1.985
2324,'99',1,0.0,-12.701
2375,'99',1,0.0,-0.797
2386,'99',1,0.0,2.301
2389,'99',1,0.0,18.865
2397,'99',1,0.0,-4.732
2429,'99',1,0.0,1.7
2436,'99',1,0.0,-2.858
2437,'99',1,0.0,-2.864
2439,'99',1,0.0,-3.769
2440,'99',1,0.0,-3.77
2443,'99',1,0.0,-21.078
2444,'99',1,0.0,-21.078
2445,'99',1,0.0,-39.396
2448,'99',1,0.0,25.649
2451,'99',1,0.0,-1.928
2452,'99',1,0.0,-1.942
2505,'99',1,0.0,1.655
2537,'99',1,0.0,5.439
2557,'99',1,0.0,-2.408
2568,'99',1,0.0,31.065
2585,'99',1,0.0,35.6
2612,'99',1,0.0,23.459
2633,'99',1,0.0,-0.849
2634,'99',1,0.0,4.733
2645,'99',1,0.0,-13.322
2664,'99',1,0.0,-0.759
2671,'99',1,0.0,0.624
2689,'99',1,0.0,3.275
2792,'99',1,0.0,12.308
2800,'99',1,0.0,-45.119
2813,'99',1,0.0,42.927
2814,'99',1,0.0,74.913
2826,'99',1,0.0,-128.245
2829,'99',1,0.0,-106.655
2836,'99',1,0.0,0.709
2840,'99',1,0.0,53.016
2841,'99',1,0.0,-1.039
2843,'99',1,0.0,10.356
2873,'99',1,0.0,0.713
2874,'99',1,0.0,-7.759
2921,'99',1,0.0,4.396
2922,'99',1,0.0,-46.019
2935,'99',1,0.0,-1.674
2955,'99',1,0.0,-1.64
2966,'99',1,0.0,5.996
2991,'99',1,0.0,-14.913
2995,'99',1,0.0,3.541
0 / END OF FIXED SHUNT DATA BEGIN GENERATOR DATA
4,'L1',87.67,-20.93,-20.927,-20.929,0.99002925,0,100.0,0.0,1.0,0.0,0.0,1.0,1,100.0,87.673,87.671,1,1.0,0,1.0,0,1.0,0,1.0,0,1.0
7,'L1',146.87,0.76,0.76,0.758,1.01337669,0,100.0,0.0,1.0,0.0,0.0,1.0,1,100.0,146.867,146.865,1,1.0,0,1.0,0,1.0,0,1.0,0,1.0
9,'94',3.37,0.0,500.0,-500.0,0.99411513,0,100.0,0.0,1.0,0.0,0.0,1.0,1,100.0,40.0,3.0,1,1.0,0,1.0,0,1.0,0,1.0,0,1.0
15,'L1',87.69,-20.93,-20.927,-20.929,0.99098158,0,100.0,0.0,1.0,0.0,0.0,1.0,1,100.0,87.691,87.689,1,1.0,0,1.0,0,1.0,0,1.0,0,1.0
21,'1',105.00,0.0,532.035,-532.035,0.990084,0,100.0,0.0,1.0,0.0,0.0,1.0,0,100.0,1764.706,88.235,1,1.0,0,1.0,0,1.0,0,1.0,0,1.0
21,'L1',88.37,-27.37,-27.366,-27.368,0.990084,0,100.0,0.0,1.0,0.0,0.0,1.0,1,100.0,88.376,88.374,1,1.0,0,1.0,0,1.0,0,1.0,0,1.0
23,'99',21.27,0.0,33.333,-33.333,1.01725914,0,100.0,0.0,1.0,0.0,0.0,1.0,1,100.0,357.409,17.87,1,1.0,0,1.0,0,1.0,0,1.0,0,1.0
25,'1',123.53,0.0,400.0,-400.0,0.97984467,0,100.0,0.0,1.0,0.0,0.0,1.0,1,100.0,2076.125,103.806,1,1.0,0,1.0,0,1.0,0,1.0,0,1.0
25,'L1',99.44,-21.92,-21.917,-21.919,0.97984467,0,100.0,0.0,1.0,0.0,0.0,1.0,1,100.0,99.441,99.439,1,1.0,0,1.0,0,1.0,0,1.0,0,1.0
27,'99',43.17,0.0,550.0,-550.0,0.9922553,0,100.0,0.0,1.0,0.0,0.0,1.0,1,100.0,1500.0,28.457,1,1.0,0,1.0,0,1.0,0,1.0,0,1.0
28,'L1',200.47,6.63,6.635,6.633,1.02317715,0,100.0,0.0,1.0,0.0,0.0,1.0,1,100.0,200.473,200.471,1,1.0,0,1.0,0,1.0,0,1.0,0,1.0
33,'L1',45.45,-26.26,-26.256,-26.258,1.00807706,0,100.0,0.0,1.0,0.0,0.0,1.0,1,100.0,45.456,45.454,1,1.0,0,1.0,0,1.0,0,1.0,0,1.0
42,'99',26.84,0.0,550.0,-550.0,1.00026839,0,100.0,0.0,1.0,0.0,0.0,1.0,1,100.0,1500.0,11.961,1,1.0,0,1.0,0,1.0,0,1.0,0,1.0
44,'L1',146.86,1.28,1.278,1.276,1.01337376,0,100.0,0.0,1.0,0.0,0.0,1.0,1,100.0,146.858,146.856,1,1.0,0,1.0,0,1.0,0,1.0,0,1.0
46,'99',66.33,0.0,550.0,-550.0,0.98582308,0,100.0,0.0,1.0,0.0,0.0,1.0,1,100.0,1500.0,51.849,1,1.0,0,1.0,0,1.0,0,1.0,0,1.0
51,'99',23.16,0.0,550.0,-550.0,1.00555404,0,100.0,0.0,1.0,0.0,0.0,1.0,1,100.0,1500.0,8.244,1,1.0,0,1.0,0,1.0,0,1.0,0,1.0
55,'1',9.86,0.0,131.303,-131.303,1.00298644,0,100.0,0.0,1.0,0.0,0.0,1.0,0,100.0,422.059,5.7,1,1.0,0,1.0,0,1.0,0,1.0,0,1.0
60,'1',3.39,0.0,9.352,-9.352,1.00363732,0,100.0,0.0,1.0,0.0,0.0,1.0,1,100.0,41.606,3.0,1,1.0,0,1.0,0,1.0,0,1.0,0,1.0
61,'L1',0.48,-0.55,-0.545,-0.547,1.00645544,0,100.0,0.0,1.0,0.0,0.0,1.0,1,100.0,0.482,0.48,1,1.0,0,1.0,0,1.0,0,1.0,0,1.0
70,'1',5.68,0.0,9.296,-9.296,1.00738278,0,100.0,0.0,1.0,0.0,0.0,1.0,1,100.0,41.36,5.32,1,1.0,0,1.0,0,1.0,0,1.0,0,1.0
73,'99',55.36,0.0,550.0,-550.0,1.02142405,0,100.0,0.0,1.0,0.0,0.0,1.0,1,100.0,1500.0,40.769,1,1.0,0,1.0,0,1.0,0,1.0,0,1.0
75,'1',29.90,0.0,425.895,-425.895,0.97215605,0,100.0,0.0,1.0,0.0,0.0,1.0,1,100.0,2000.0,10.0,1,1.0,0,1.0,0,1.0,0,1.0,0,1.0
75,'2',29.90,0.0,426.656,-426.656,0.97215605,0,100.0,0.0,1.0,0.0,0.0,1.0,1,100.0,2000.0,10.0,1,1.0,0,1.0,0,1.0,0,1.0,0,1.0
78,'99',17.97,0.0,550.0,-550.0,1.0311329,0,100.0,0.0,1.0,0.0,0.0,1.0,1,100.0,1500.0,3.0,1,1.0,0,1.0,0,1.0,0,1.0,0,1.0
83,'L1',6.02,-6.03,-6.031,-6.033,1.033539,0,100.0,0.0,1.0,0.0,0.0,1.0,1,100.0,6.024,6.022,1,1.0,0,1.0,0,1.0,0,1.0,0,1.0
96,'99',21.11,0.0,550.0,-550.0,1.04300868,0,100.0,0.0,1.0,0.0,0.0,1.0,1,100.0,1500.0,6.17,1,1.0,0,1.0,0,1.0,0,1.0,0,1.0
112,'97',3.37,0.0,3.66,-3.66,1.01605462,0,100.0,0.0,1.0,0.0,0.0,1.0,1,100.0,40.0,3.0,1,1.0,0,1.0,0,1.0,0,1.0,0,1.0
116,'99',5.25,0.0,51.286,-51.286,1.03613835,0,100.0,0.0,1.0,0.0,0.0,1.0,1,100.0,228.172,3.0,1,1.0,0,1.0,0,1.0,0,1.0,0,1.0
119,'1',54.39,0.0,284.382,-284.382,1.04957262,0,100.0,0.0,1.0,0.0,0.0,1.0,0,100.0,914.118,45.706,1,1.0,0,1.0,0,1.0,0,1.0,0,1.0
119,'L1',1.59,-5.73,-5.726,-5.728,1.04957262,0,100.0,0.0,1.0,0.0,0.0,1.0,1,100.0,1.592,1.59,1,1.0,0,1.0,0,1.0,0,1.0,0,1.0
128,'L2',2.10,-3.48,-3.478,-3.48,1.02915926,0,100.0,0.0,1.0,0.0,0.0,1.0,1,100.0,2.101,2.099,1,1.0,0,1.0,0,1.0,0,1.0,0,1.0
129,'1',15.47,0.0,281.019,-281.019,1.04329549,0,100.0,0.0,1.0,0.0,0.0,1.0,1,100.0,1250.255,3.0,1,1.0,0,1.0,0,1.0,0,1.0,0,1.0
129,'L1',1.60,-5.61,-5.606,-5.608,1.04329549,0,100.0,0.0,1.0,0.0,0.0,1.0,1,100.0,1.602,1.6,1,1.0,0,1.0,0,1.0,0,1.0,0,1.0
130,'L1',42.96,-4.38,-4.375,-4.377,1.02593742,0,100.0,0.0,1.0,0.0,0.0,1.0,1,100.0,42.958,42.956,1,1.0,0,1.0,0,1.0,0,1.0,0,1.0
139,'L1',4.69,-0.11,-0.11,-0.112,1.02197372,0,100.0,0.0,1.0,0.0,0.0,1.0,1,100.0,4.692,4.69,1,1.0,0,1.0,0,1.0,0,1.0,0,1.0
141,'99',89.25,0.0,550.0,-550.0,1.03087352,0,100.0,0.0,1.0,0.0,0.0,1.0,1,100.0,1500.0,75.0,1,1.0,0,1.0,0,1.0,0,1.0,0,1.0
147,'1',3.37,0.0,9.607,-9.607,1.03017715,0,100.0,0.0,1.0,0.0,0.0,1.0,1,100.0,40.0,3.0,1,1.0,0,1.0,0,1.0,0,1.0,0,1.0
151,'1',23.01,0.0,120.323,-120.323,1.0137397,0,100.0,0.0,1.0,0.0,0.0,1.0,0,100.0,386.765,19.338,1,1.0,0,1.0,0,1.0,0,1.0,0,1.0
152,'1',10.01,0.0,135.878,-135.878,1.00327249,0,100.0,0.0,1.0,0.0,0.0,1.0,1,100.0,436.765,5.7,1,1.0,0,1.0,0,1.0,0,1.0,0,1.0
154,'1',8.09,0.0,135.42,-135.42,1.0286807,0,100.0,0.0,1.0,0.0,0.0,1.0,1,100.0,512.111,3.0,1,1.0,0,1.0,0,1.0,0,1.0,0,1.0
160,'1',3.51,0.0,16.813,-16.813,1.00067452,0,100.0,0.0,1.0,0.0,0.0,1.0,0,100.0,54.044,3.0,1,1.0,0,1.0,0,1.0,0,1.0,0,1.0
163,'1',10.45,0.0,32.357,-32.357,0.99922392,0,100.0,0.0,1.0,0.0,0.0,1.0,0,100.0,104.007,9.5,1,1.0,0,1.0,0,1.0,0,1.0,0,1.0
174,'L1',0.38,1.28,1.278,1.276,1.01551615,0,100.0,0.0,1.0,0.0,0.0,1.0,1,100.0,0.38,0.378,1,1.0,0,1.0,0,1.0,0,1.0,0,1.0
178,'1',3.24,0.0,8.321,-8.321,0.99376388,0,100.0,0.0,1.0,0.0,0.0,1.0,0,100.0,26.746,3.0,1,1.0,0,1.0,0,1.0,0,1.0,0,1.0
179,'1',39.42,0.0,56.044,-56.044,1.00110185,0,100.0,0.0,1.0,0.0,0.0,1.0,0,100.0,180.147,38.0,1,1.0,0,1.0,0,1.0,0,1.0,0,1.0
182,'1',8.05,0.0,10.426,-10.426,0.99824495,0,100.0,0.0,1.0,0.0,0.0,1.0,0,100.0,33.515,7.79,1,1.0,0,1.0,0,1.0,0,1.0,0,1.0
191,'L1',0.48,-0.55,-0.545,-0.547,1.00603777,0,100.0,0.0,1.0,0.0,0.0,1.0,1,100.0,0.482,0.48,1,1.0,0,1.0,0,1.0,0,1.0,0,1.0
192,'1',25.81,0.0,134.962,-134.962,0.99684985,0,100.0,0.0,1.0,0.0,0.0,1.0,0,100.0,433.824,21.691,1,1.0,0,1.0,0,1.0,0,1.0,0,1.0
196,'1',3.35,0.0,11.929,-11.929,0.99824495,0,100.0,0.0,1.0,0.0,0.0,1.0,0,100.0,38.346,3.0,1,1.0,0,1.0,0,1.0,0,1.0,0,1.0
199,'1',19.94,0.0,14.745,-14.745,1.01050115,0,100.0,0.0,1.0,0.0,0.0,1.0,0,100.0,47.397,19.66,1,1.0,0,1.0,0,1.0,0,1.0,0,1.0
199,'2',4.59,0.0,24.019,-24.019,1.01050115,0,100.0,0.0,1.0,0.0,0.0,1.0,0,100.0,77.206,3.86,1,1.0,0,1.0,0,1.0,0,1.0,0,1.0
199,'3',3.28,0.0,9.607,-9.607,1.01050115,0,100.0,0.0,1.0,0.0,0.0,1.0,0,100.0,30.882,3.0,1,1.0,0,1.0,0,1.0,0,1.0,0,1.0
203,'L1',0.87,13.90,13.907,13.905,1.00901977,0,100.0,0.0,1.0,0.0,0.0,1.0,1,100.0,0.871,0.869,1,1.0,0,1.0,0,1.0,0,1.0,0,1.0
206,'L1',1.69,0.38,0.38,0.378,1.01861093,0,100.0,0.0,1.0,0.0,0.0,1.0,1,100.0,1.694,1.692,1,1.0,0,1.0,0,1.0,0,1.0,0,1.0
207,'L1',0.30,-4.53,-4.532,-4.534,0.99063214,0,100.0,0.0,1.0,0.0,0.0,1.0,1,100.0,0.306,0.304,1,1.0,0,1.0,0,1.0,0,1.0,0,1.0
211,'1',3.37,0.0,11.209,-11.209,1.01732595,0,100.0,0.0,1.0,0.0,0.0,1.0,1,100.0,40.0,3.0,1,1.0,0,1.0,0,1.0,0,1.0,0,1.0
217,'1',310.53,0.0,297.832,-297.832,0.9888536,0,100.0,0.0,1.0,0.0,0.0,1.0,0,100.0,957.353,304.0,1,1.0,0,1.0,0,1.0,0,1.0,0,1.0
224,'1',436.99,0.0,431.367,-431.367,0.99705379,0,100.0,0.0,1.0,0.0,0.0,1.0,0,100.0,1386.585,427.4,1,1.0,0,1.0,0,1.0,0,1.0,0,1.0
227,'L1',1.75,-0.41,-0.415,-0.417,1.00003433,0,100.0,0.0,1.0,0.0,0.0,1.0,1,100.0,1.75,1.748,1,1.0,0,1.0,0,1.0,0,1.0,0,1.0
237,'1',7.86,0.0,10.34,-10.34,0.99287298,0,100.0,0.0,1.0,0.0,0.0,1.0,0,100.0,33.235,7.6,1,1.0,0,1.0,0,1.0,0,1.0,0,1.0
243,'99',23.88,0.0,550.0,-550.0,1.01017153,0,100.0,0.0,1.0,0.0,0.0,1.0,1,100.0,1500.0,8.973,1,1.0,0,1.0,0,1.0,0,1.0,0,1.0
252,'1',13.21,0.0,69.06,-69.06,0.99817443,0,100.0,0.0,1.0,0.0,0.0,1.0,0,100.0,221.985,11.099,1,1.0,0,1.0,0,1.0,0,1.0,0,1.0
257,'1',21.25,0.0,24.979,-24.979,0.98886225,0,100.0,0.0,1.0,0.0,0.0,1.0,0,100.0,80.294,20.65,1,1.0,0,1.0,0,1.0,0,1.0,0,1.0
263,'1',4.86,0.0,21.617,-21.617,0.9981078,0,100.0,0.0,1.0,0.0,0.0,1.0,1,100.0,81.747,4.087,1,1.0,0,1.0,0,1.0,0,1.0,0,1.0
267,'99',17.97,0.0,550.0,-550.0,1.00307147,0,100.0,0.0,1.0,0.0,0.0,1.0,1,100.0,1500.0,3.0,1,1.0,0,1.0,0,1.0,0,1.0,0,1.0
269,'99',53.30,0.0,550.0,-550.0,0.95511981,0,100.0,0.0,1.0,0.0,0.0,1.0,1,100.0,1500.0,38.686,1,1.0,0,1.0,0,1.0,0,1.0,0,1.0
274,'1',5.41,0.0,18.735,-18.735,0.98923789,0,100.0,0.0,1.0,0.0,0.0,1.0,1,100.0,70.848,4.75,1,1.0,0,1.0,0,1.0,0,1.0,0,1.0
286,'99',89.25,0.0,550.0,-550.0,1.04586309,0,100.0,0.0,1.0,0.0,0.0,1.0,1,100.0,1500.0,75.0,1,1.0,0,1.0,0,1.0,0,1.0,0,1.0
293,'1',5.89,0.0,26.764,-26.764,0.99076672,0,100.0,0.0,1.0,0.0,0.0,1.0,1,100.0,119.072,4.75,1,1.0,0,1.0,0,1.0,0,1.0,0,1.0
302,'1',8.96,0.0,120.323,-120.323,1.01352173,0,100.0,0.0,1.0,0.0,0.0,1.0,0,100.0,386.765,5.142,1,1.0,0,1.0,0,1.0,0,1.0,0,1.0
305,'1',32.82,0.0,123.982,-123.982,1.02464494,0,100.0,0.0,1.0,0.0,0.0,1.0,1,100.0,551.598,27.58,1,1.0,0,1.0,0,1.0,0,1.0,0,1.0
314,'1',258.59,0.0,307.92,-307.92,0.98515733,0,100.0,0.0,1.0,0.0,0.0,1.0,0,100.0,989.779,251.2,1,1.0,0,1.0,0,1.0,0,1.0,0,1.0
322,'99',51.68,0.0,550.0,-550.0,1.01894336,0,100.0,0.0,1.0,0.0,0.0,1.0,1,100.0,1500.0,37.055,1,1.0,0,1.0,0,1.0,0,1.0,0,1.0
332,'1',6.27,0.0,48.037,-48.037,1.01780738,0,100.0,0.0,1.0,0.0,0.0,1.0,1,100.0,181.661,4.5,1,1.0,0,1.0,0,1.0,0,1.0,0,1.0
333,'1',3.20,0.0,7.206,-7.206,0.98420782,0,100.0,0.0,1.0,0.0,0.0,1.0,0,100.0,23.162,3.0,1,1.0,0,1.0,0,1.0,0,1.0,0,1.0
336,'1',96.38,0.0,86.467,-86.467,0.99999296,0,100.0,0.0,1.0,0.0,0.0,1.0,0,100.0,326.99,94.05,1,1.0,0,1.0,0,1.0,0,1.0,0,1.0
339,'1',7.16,0.0,117.578,-117.578,0.98836733,0,100.0,0.0,1.0,0.0,0.0,1.0,1,100.0,523.102,1.95,1,1.0,0,1.0,0,1.0,0,1.0,0,1.0
350,'1',27.80,0.0,66.292,-66.292,0.994555,0,100.0,0.0,1.0,0.0,0.0,1.0,0,100.0,213.088,25.933,1,1.0,0,1.0,0,1.0,0,1.0,0,1.0
351,'99',89.25,0.0,550.0,-550.0,1.04510013,0,100.0,0.0,1.0,0.0,0.0,1.0,1,100.0,1500.0,75.0,1,1.0,0,1.0,0,1.0,0,1.0,0,1.0
352,'1',41.14,0.0,215.089,-215.089,0.98481212,0,100.0,0.0,1.0,0.0,0.0,1.0,0,100.0,691.382,34.569,1,1.0,0,1.0,0,1.0,0,1.0,0,1.0
353,'1',96.36,0.0,101.107,-101.107,0.99999296,0,100.0,0.0,1.0,0.0,0.0,1.0,0,100.0,325.0,94.05,1,1.0,0,1.0,0,1.0,0,1.0,0,1.0
356,'1',7.09,0.0,128.1,-128.1,0.98650444,0,100.0,0.0,1.0,0.0,0.0,1.0,1,100.0,411.765,3.0,1,1.0,0,1.0,0,1.0,0,1.0,0,1.0
358,'2',6.57,0.0,123.525,-123.525,0.99365991,0,100.0,0.0,1.0,0.0,0.0,1.0,1,100.0,549.562,1.083,1,1.0,0,1.0,0,1.0,0,1.0,0,1.0
359,'1',131.37,0.0,243.07,-243.07,0.96092081,0,100.0,0.0,1.0,0.0,0.0,1.0,0,100.0,781.324,124.8,1,1.0,0,1.0,0,1.0,0,1.0,0,1.0
368,'1',6.88,0.0,25.986,-25.986,0.99428462,0,100.0,0.0,1.0,0.0,0.0,1.0,1,100.0,115.612,5.781,1,1.0,0,1.0,0,1.0,0,1.0,0,1.0
370,'L1',3.02,11.81,11.816,11.814,1.00868845,0,100.0,0.0,1.0,0.0,0.0,1.0,1,100.0,3.017,3.015,1,1.0,0,1.0,0,1.0,0,1.0,0,1.0
371,'1',19.05,0.0,122.152,-122.152,0.98692972,0,100.0,0.0,1.0,0.0,0.0,1.0,1,100.0,461.938,14.58,1,1.0,0,1.0,0,1.0,0,1.0,0,1.0
371,'2',22.75,0.0,118.95,-118.95,0.98692972,0,100.0,0.0,1.0,0.0,0.0,1.0,0,100.0,382.353,19.118,1,1.0,0,1.0,0,1.0,0,1.0,0,1.0
371,'3',13.96,0.0,19.627,-19.627,0.98692972,0,100.0,0.0,1.0,0.0,0.0,1.0,0,100.0,63.088,13.46,1,1.0,0,1.0,0,1.0,0,1.0,0,1.0
372,'1',16.54,0.0,86.467,-86.467,0.98749242,0,100.0,0.0,1.0,0.0,0.0,1.0,1,100.0,277.941,13.897,1,1.0,0,1.0,0,1.0,0,1.0,0,1.0
373,'L1',4.76,13.36,13.361,13.359,1.00286312,0,100.0,0.0,1.0,0.0,0.0,1.0,1,100.0,4.757,4.755,1,1.0,0,1.0,0,1.0,0,1.0,0,1.0
373,'L2',4.76,13.36,13.361,13.359,1.00286312,0,100.0,0.0,1.0,0.0,0.0,1.0,1,100.0,4.757,4.755,1,1.0,0,1.0,0,1.0,0,1.0,0,1.0
375,'1',5.40,0.0,21.617,-21.617,0.98382169,0,100.0,0.0,1.0,0.0,0.0,1.0,0,100.0,69.485,4.75,1,1.0,0,1.0,0,1.0,0,1.0,0,1.0
379,'1',135.71,0.0,253.158,-253.158,0.96078767,0,100.0,0.0,1.0,0.0,0.0,1.0,1,100.0,1126.297,125.708,1,1.0,0,1.0,0,1.0,0,1.0,0,1.0
382,'1',95.89,0.0,86.467,-86.467,0.99999296,0,100.0,0.0,1.0,0.0,0.0,1.0,0,100.0,277.941,94.05,1,1.0,0,1.0,0,1.0,0,1.0,0,1.0
388,'99',43.32,0.0,550.0,-550.0,0.96845395,0,100.0,0.0,1.0,0.0,0.0,1.0,1,100.0,1500.0,28.605,1,1.0,0,1.0,0,1.0,0,1.0,0,1.0
392,'1',7.20,0.0,116.663,-116.663,0.98512989,0,100.0,0.0,1.0,0.0,0.0,1.0,1,100.0,519.031,2.025,1,1.0,0,1.0,0,1.0,0,1.0,0,1.0
398,'1',8.51,0.0,124.44,-124.44,0.96347184,0,100.0,0.0,1.0,0.0,0.0,1.0,1,100.0,553.633,3.0,1,1.0,0,1.0,0,1.0,0,1.0,0,1.0
401,'1',136.47,0.0,312.244,-312.244,0.99999296,0,100.0,0.0,1.0,0.0,0.0,1.0,0,100.0,1003.676,127.708,1,1.0,0,1.0,0,1.0,0,1.0,0,1.0
412,'99',40.64,0.0,550.0,-550.0,1.03925218,0,100.0,0.0,1.0,0.0,0.0,1.0,1,100.0,1500.0,25.897,1,1.0,0,1.0,0,1.0,0,1.0,0,1.0
414,'99',33.37,0.0,550.0,-550.0,1.02769175,0,100.0,0.0,1.0,0.0,0.0,1.0,1,100.0,1500.0,18.554,1,1.0,0,1.0,0,1.0,0,1.0,0,1.0
421,'1',3.37,0.0,605.021,-605.021,0.96174262,0,100.0,0.0,1.0,0.0,0.0,1.0,1,100.0,40.0,3.0,1,1.0,0,1.0,0,1.0,0,1.0,0,1.0
431,'99',17.97,0.0,550.0,-550.0,1.01843817,0,100.0,0.0,1.0,0.0,0.0,1.0,1,100.0,1500.0,3.0,1,1.0,0,1.0,0,1.0,0,1.0,0,1.0
433,'99',17.97,0.0,550.0,-550.0,1.01402655,0,100.0,0.0,1.0,0.0,0.0,1.0,1,100.0,1500.0,3.0,1,1.0,0,1.0,0,1.0,0,1.0,0,1.0
442,'99',24.27,0.0,550.0,-550.0,0.98021512,0,100.0,0.0,1.0,0.0,0.0,1.0,1,100.0,1500.0,9.363,1,1.0,0,1.0,0,1.0,0,1.0,0,1.0
451,'L1',1.57,-0.50,-0.499,-0.501,1.00252392,0,100.0,0.0,1.0,0.0,0.0,1.0,1,100.0,1.574,1.572,1,1.0,0,1.0,0,1.0,0,1.0,0,1.0
456,'99',89.25,0.0,550.0,-550.0,1.01143979,0,100.0,0.0,1.0,0.0,0.0,1.0,1,100.0,1500.0,75.0,1,1.0,0,1.0,0,1.0,0,1.0,0,1.0
468,'1',29.48,0.0,28.431,-28.431,0.98761373,0,100.0,0.0,1.0,0.0,0.0,1.0,1,100.0,126.491,28.5,1,1.0,0,1.0,0,1.0,0,1.0,0,1.0
474,'1',25.46,0.0,133.133,-133.133,0.99266932,0,100.0,0.0,1.0,0.0,0.0,1.0,0,100.0,427.941,21.397,1,1.0,0,1.0,0,1.0,0,1.0,0,1.0
474,'2',14.73,0.0,19.215,-19.215,0.99266932,0,100.0,0.0,1.0,0.0,0.0,1.0,0,100.0,61.765,14.25,1,1.0,0,1.0,0,1.0,0,1.0,0,1.0
488,'L1',0.50,-1.63,-1.627,-1.629,1.01907037,0,100.0,0.0,1.0,0.0,0.0,1.0,1,100.0,0.501,0.499,1,1.0,0,1.0,0,1.0,0,1.0,0,1.0
506,'1',22.84,0.0,119.408,-119.408,0.99693433,0,100.0,0.0,1.0,0.0,0.0,1.0,0,100.0,383.824,19.191,1,1.0,0,1.0,0,1.0,0,1.0,0,1.0
510,'99',17.97,0.0,550.0,-550.0,0.95217125,0,100.0,0.0,1.0,0.0,0.0,1.0,1,100.0,1500.0,3.0,1,1.0,0,1.0,0,1.0,0,1.0,0,1.0
543,'99',89.25,0.0,550.0,-550.0,1.02904398,0,100.0,0.0,1.0,0.0,0.0,1.0,1,100.0,1500.0,75.0,1,1.0,0,1.0,0,1.0,0,1.0,0,1.0
545,'L1',1.51,-1.65,-1.646,-1.648,1.01218735,0,100.0,0.0,1.0,0.0,0.0,1.0,1,100.0,1.509,1.507,1,1.0,0,1.0,0,1.0,0,1.0,0,1.0
545,'L2',1.51,-1.65,-1.646,-1.648,1.01218735,0,100.0,0.0,1.0,0.0,0.0,1.0,1,100.0,1.509,1.507,1,1.0,0,1.0,0,1.0,0,1.0,0,1.0
552,'L1',0.81,-2.33,-2.331,-2.333,1.00271423,0,100.0,0.0,1.0,0.0,0.0,1.0,1,100.0,0.815,0.813,1,1.0,0,1.0,0,1.0,0,1.0,0,1.0
563,'1',73.50,0.0,384.3,-384.3,1.02695827,0,100.0,0.0,1.0,0.0,0.0,1.0,0,100.0,1235.294,61.765,1,1.0,0,1.0,0,1.0,0,1.0,0,1.0
563,'L1',306.96,-10.25,-10.25,-10.252,1.02695827,0,100.0,0.0,1.0,0.0,0.0,1.0,1,100.0,306.964,306.962,1,1.0,0,1.0,0,1.0,0,1.0,0,1.0
566,'1',16.92,0.0,368.928,-368.928,1.00309283,0,100.0,0.0,1.0,0.0,0.0,1.0,1,100.0,1395.156,3.0,1,1.0,0,1.0,0,1.0,0,1.0,0,1.0
569,'99',19.55,0.0,550.0,-550.0,1.03785007,0,100.0,0.0,1.0,0.0,0.0,1.0,1,100.0,1500.0,4.591,1,1.0,0,1.0,0,1.0,0,1.0,0,1.0
573,'L1',87.67,-20.93,-20.927,-20.929,1.04450654,0,100.0,0.0,1.0,0.0,0.0,1.0,1,100.0,87.673,87.671,1,1.0,0,1.0,0,1.0,0,1.0,0,1.0
577,'L1',146.87,0.76,0.76,0.758,1.06081683,0,100.0,0.0,1.0,0.0,0.0,1.0,1,100.0,146.867,146.865,1,1.0,0,1.0,0,1.0,0,1.0,0,1.0
579,'1',30.77,0.0,116.251,-116.251,1.03862222,0,100.0,0.0,1.0,0.0,0.0,1.0,1,100.0,517.199,25.86,1,1.0,0,1.0,0,1.0,0,1.0,0,1.0
580,'L1',20.32,-10.62,-10.62,-10.622,1.00387303,0,100.0,0.0,1.0,0.0,0.0,1.0,1,100.0,20.318,20.316,1,1.0,0,1.0,0,1.0,0,1.0,0,1.0
580,'L2',20.32,-10.62,-10.62,-10.622,1.00387303,0,100.0,0.0,1.0,0.0,0.0,1.0,1,100.0,20.318,20.316,1,1.0,0,1.0,0,1.0,0,1.0,0,1.0
582,'1',17.22,0.0,320.404,-320.404,0.98334958,0,100.0,0.0,1.0,0.0,0.0,1.0,1,100.0,1425.478,3.0,1,1.0,0,1.0,0,1.0,0,1.0,0,1.0
584,'99',3.37,0.0,24.181,-24.181,1.03252769,0,100.0,0.0,1.0,0.0,0.0,1.0,1,100.0,40.0,3.0,1,1.0,0,1.0,0,1.0,0,1.0,0,1.0
588,'1',4.32,0.0,22.578,-22.578,0.99927951,0,100.0,0.0,1.0,0.0,0.0,1.0,0,100.0,72.574,3.629,1,1.0,0,1.0,0,1.0,0,1.0,0,1.0
602,'L1',87.69,-20.93,-20.927,-20.929,1.0444365,0,100.0,0.0,1.0,0.0,0.0,1.0,1,100.0,87.691,87.689,1,1.0,0,1.0,0,1.0,0,1.0,0,1.0
609,'99',17.97,0.0,550.0,-550.0,0.99536199,0,100.0,0.0,1.0,0.0,0.0,1.0,1,100.0,1500.0,3.0,1,1.0,0,1.0,0,1.0,0,1.0,0,1.0
614,'1',15.00,0.0,270.451,-270.451,1.04145341,0,100.0,0.0,1.0,0.0,0.0,1.0,1,100.0,1203.236,3.0,1,1.0,0,1.0,0,1.0,0,1.0,0,1.0
614,'L1',88.37,-27.37,-27.366,-27.368,1.04145341,0,100.0,0.0,1.0,0.0,0.0,1.0,1,100.0,88.376,88.374,1,1.0,0,1.0,0,1.0,0,1.0,0,1.0
626,'1',61.04,0.0,319.141,-319.141,1.00157059,0,100.0,0.0,1.0,0.0,0.0,1.0,0,100.0,1025.846,51.292,1,1.0,0,1.0,0,1.0,0,1.0,0,1.0
629,'1',33.44,0.0,174.857,-174.857,1.04300683,0,100.0,0.0,1.0,0.0,0.0,1.0,0,100.0,562.059,28.103,1,1.0,0,1.0,0,1.0,0,1.0,0,1.0
629,'L1',99.44,-21.92,-21.917,-21.919,1.04300683,0,100.0,0.0,1.0,0.0,0.0,1.0,1,100.0,99.441,99.439,1,1.0,0,1.0,0,1.0,0,1.0,0,1.0
630,'1',5.60,0.0,29.303,-29.303,1.02641568,0,100.0,0.0,1.0,0.0,0.0,1.0,0,100.0,94.191,4.71,1,1.0,0,1.0,0,1.0,0,1.0,0,1.0
630,'2',5.05,0.0,26.421,-26.421,1.02641568,0,100.0,0.0,1.0,0.0,0.0,1.0,0,100.0,84.926,4.246,1,1.0,0,1.0,0,1.0,0,1.0,0,1.0
630,'3',4.52,0.0,26.421,-26.421,1.02641568,0,100.0,0.0,1.0,0.0,0.0,1.0,1,100.0,117.545,3.375,1,1.0,0,1.0,0,1.0,0,1.0,0,1.0
630,'4',4.34,0.0,30.744,-30.744,1.02641568,0,100.0,0.0,1.0,0.0,0.0,1.0,1,100.0,136.78,3.0,1,1.0,0,1.0,0,1.0,0,1.0,0,1.0
630,'5',4.96,0.0,25.94,-25.94,1.02641568,0,100.0,0.0,1.0,0.0,0.0,1.0,0,100.0,83.382,4.169,1,1.0,0,1.0,0,1.0,0,1.0,0,1.0
630,'6',4.96,0.0,25.94,-25.94,1.02641568,0,100.0,0.0,1.0,0.0,0.0,1.0,0,100.0,83.382,4.169,1,1.0,0,1.0,0,1.0,0,1.0,0,1.0
631,'L1',21.53,-23.67,-23.666,-23.668,1.00809131,0,100.0,0.0,1.0,0.0,0.0,1.0,1,100.0,21.53,21.528,1,1.0,0,1.0,0,1.0,0,1.0,0,1.0
631,'L2',22.16,-23.22,-23.221,-23.223,1.00809131,0,100.0,0.0,1.0,0.0,0.0,1.0,1,100.0,22.16,22.158,1,1.0,0,1.0,0,1.0,0,1.0,0,1.0
634,'2',3.20,0.0,7.206,-7.206,0.9997578,0,100.0,0.0,1.0,0.0,0.0,1.0,0,100.0,23.162,3.0,1,1.0,0,1.0,0,1.0,0,1.0,0,1.0
637,'L1',200.47,6.63,6.635,6.633,1.05924531,0,100.0,0.0,1.0,0.0,0.0,1.0,1,100.0,200.473,200.471,1,1.0,0,1.0,0,1.0,0,1.0,0,1.0
638,'1',77.82,0.0,293.99,-293.99,0.96848991,0,100.0,0.0,1.0,0.0,0.0,1.0,1,100.0,1307.958,65.398,1,1.0,0,1.0,0,1.0,0,1.0,0,1.0
652,'1',4.32,0.0,22.578,-22.578,0.96169637,0,100.0,0.0,1.0,0.0,0.0,1.0,0,100.0,72.574,3.629,1,1.0,0,1.0,0,1.0,0,1.0,0,1.0
652,'2',4.32,0.0,22.578,-22.578,0.96169637,0,100.0,0.0,1.0,0.0,0.0,1.0,0,100.0,72.574,3.629,1,1.0,0,1.0,0,1.0,0,1.0,0,1.0
652,'3',3.73,0.0,23.538,-23.538,0.96169637,0,100.0,0.0,1.0,0.0,0.0,1.0,1,100.0,75.662,3.0,1,1.0,0,1.0,0,1.0,0,1.0,0,1.0
652,'4',35.12,0.0,132.675,-132.675,0.96169637,0,100.0,0.0,1.0,0.0,0.0,1.0,1,100.0,590.271,29.514,1,1.0,0,1.0,0,1.0,0,1.0,0,1.0
652,'5',25.64,0.0,134.048,-134.048,0.96169637,0,100.0,0.0,1.0,0.0,0.0,1.0,0,100.0,430.882,21.544,1,1.0,0,1.0,0,1.0,0,1.0,0,1.0
652,'6',3.29,0.0,9.887,-9.887,0.96169637,0,100.0,0.0,1.0,0.0,0.0,1.0,1,100.0,31.779,3.0,1,1.0,0,1.0,0,1.0,0,1.0,0,1.0
654,'L1',45.45,-26.26,-26.256,-26.258,1.06128326,0,100.0,0.0,1.0,0.0,0.0,1.0,1,100.0,45.456,45.454,1,1.0,0,1.0,0,1.0,0,1.0,0,1.0
664,'99',26.49,0.0,550.0,-550.0,1.02348535,0,100.0,0.0,1.0,0.0,0.0,1.0,1,100.0,1500.0,11.604,1,1.0,0,1.0,0,1.0,0,1.0,0,1.0
669,'1',12.19,0.0,286.784,-286.784,1.0495322,0,100.0,0.0,1.0,0.0,0.0,1.0,1,100.0,921.838,3.0,1,1.0,0,1.0,0,1.0,0,1.0,0,1.0
682,'97',3.37,0.0,3.66,-3.66,1.06090229,0,100.0,0.0,1.0,0.0,0.0,1.0,1,100.0,40.0,3.0,1,1.0,0,1.0,0,1.0,0,1.0,0,1.0
682,'L1',146.86,1.28,1.278,1.276,1.06090229,0,100.0,0.0,1.0,0.0,0.0,1.0,1,100.0,146.858,146.856,1,1.0,0,1.0,0,1.0,0,1.0,0,1.0
686,'1',69.73,0.0,364.605,-364.605,1.00809131,0,100.0,0.0,1.0,0.0,0.0,1.0,0,100.0,1171.985,58.599,1,1.0,0,1.0,0,1.0,0,1.0,0,1.0
696,'99',37.07,0.0,550.0,-550.0,0.98401004,0,100.0,0.0,1.0,0.0,0.0,1.0,1,100.0,1500.0,22.288,1,1.0,0,1.0,0,1.0,0,1.0,0,1.0
698,'97',3.37,0.0,3.66,-3.66,1.03863376,0,100.0,0.0,1.0,0.0,0.0,1.0,1,100.0,40.0,3.0,1,1.0,0,1.0,0,1.0,0,1.0,0,1.0
702,'1',17.22,0.0,443.386,-443.386,1.00346069,0,100.0,0.0,1.0,0.0,0.0,1.0,1,100.0,1425.221,3.0,1,1.0,0,1.0,0,1.0,0,1.0,0,1.0
715,'1',24.67,0.0,129.015,-129.015,0.97137803,0,100.0,0.0,1.0,0.0,0.0,1.0,0,100.0,414.706,20.735,1,1.0,0,1.0,0,1.0,0,1.0,0,1.0
717,'L1',11.49,-2.13,-2.127,-2.129,0.96529515,0,100.0,0.0,1.0,0.0,0.0,1.0,1,100.0,11.492,11.49,1,1.0,0,1.0,0,1.0,0,1.0,0,1.0
719,'1',3.96,0.0,30.744,-30.744,1.0485553,0,100.0,0.0,1.0,0.0,0.0,1.0,0,100.0,98.824,3.0,1,1.0,0,1.0,0,1.0,0,1.0,0,1.0
722,'1',5.97,0.0,31.224,-31.224,1.01209803,0,100.0,0.0,1.0,0.0,0.0,1.0,0,100.0,100.368,5.018,1,1.0,0,1.0,0,1.0,0,1.0,0,1.0
728,'1',23.34,0.0,122.015,-122.015,1.00506594,0,100.0,0.0,1.0,0.0,0.0,1.0,0,100.0,392.206,19.61,1,1.0,0,1.0,0,1.0,0,1.0,0,1.0
730,'1',24.97,0.0,110.967,-110.967,1.01350384,0,100.0,0.0,1.0,0.0,0.0,1.0,1,100.0,419.637,20.982,1,1.0,0,1.0,0,1.0,0,1.0,0,1.0
732,'1',7.92,0.0,111.218,-111.218,0.99072847,0,100.0,0.0,1.0,0.0,0.0,1.0,1,100.0,494.81,3.0,1,1.0,0,1.0,0,1.0,0,1.0,0,1.0
735,'1',5.79,0.0,30.264,-30.264,0.9965277,0,100.0,0.0,1.0,0.0,0.0,1.0,0,100.0,97.279,4.864,1,1.0,0,1.0,0,1.0,0,1.0,0,1.0
739,'1',3.36,0.0,12.009,-12.009,1.01461917,0,100.0,0.0,1.0,0.0,0.0,1.0,0,100.0,38.603,3.0,1,1.0,0,1.0,0,1.0,0,1.0,0,1.0
742,'2',4.37,0.0,48.037,-48.037,0.97977301,0,100.0,0.0,1.0,0.0,0.0,1.0,0,100.0,154.412,2.85,1,1.0,0,1.0,0,1.0,0,1.0,0,1.0
748,'1',23.34,0.0,122.015,-122.015,1.00506594,0,100.0,0.0,1.0,0.0,0.0,1.0,0,100.0,392.206,19.61,1,1.0,0,1.0,0,1.0,0,1.0,0,1.0
751,'L1',0.19,-0.18,-0.184,-0.186,0.97200472,0,100.0,0.0,1.0,0.0,0.0,1.0,1,100.0,0.195,0.193,1,1.0,0,1.0,0,1.0,0,1.0,0,1.0
759,'L1',6.07,2.23,2.231,2.229,0.99025405,0,100.0,0.0,1.0,0.0,0.0,1.0,1,100.0,6.07,6.068,1,1.0,0,1.0,0,1.0,0,1.0,0,1.0
763,'L1',346.43,-11.74,-11.74,-11.742,1.00959193,0,100.0,0.0,1.0,0.0,0.0,1.0,1,100.0,346.433,346.431,1,1.0,0,1.0,0,1.0,0,1.0,0,1.0
765,'1',7.99,0.0,41.793,-41.793,0.95406228,0,100.0,0.0,1.0,0.0,0.0,1.0,0,100.0,134.338,6.717,1,1.0,0,1.0,0,1.0,0,1.0,0,1.0
766,'L1',351.00,-7.59,-7.586,-7.588,1.01205397,0,100.0,0.0,1.0,0.0,0.0,1.0,1,100.0,351.003,351.001,1,1.0,0,1.0,0,1.0,0,1.0,0,1.0
770,'2',3.54,0.0,17.808,-17.808,1.00506594,0,100.0,0.0,1.0,0.0,0.0,1.0,0,100.0,57.243,3.0,1,1.0,0,1.0,0,1.0,0,1.0,0,1.0
770,'3',3.46,0.0,15.172,-15.172,1.00506594,0,100.0,0.0,1.0,0.0,0.0,1.0,0,100.0,48.768,3.0,1,1.0,0,1.0,0,1.0,0,1.0,0,1.0
774,'99',25.64,0.0,550.0,-550.0,1.04853644,0,100.0,0.0,1.0,0.0,0.0,1.0,1,100.0,1500.0,10.752,1,1.0,0,1.0,0,1.0,0,1.0,0,1.0
775,'1',6.55,0.0,111.384,-111.384,1.03710104,0,100.0,0.0,1.0,0.0,0.0,1.0,1,100.0,358.033,3.0,1,1.0,0,1.0,0,1.0,0,1.0,0,1.0
780,'L1',21.55,-5.64,-5.643,-5.645,0.97217754,0,100.0,0.0,1.0,0.0,0.0,1.0,1,100.0,21.549,21.547,1,1.0,0,1.0,0,1.0,0,1.0,0,1.0
783,'1',7.17,0.0,111.052,-111.052,1.01294665,0,100.0,0.0,1.0,0.0,0.0,1.0,1,100.0,419.961,3.0,1,1.0,0,1.0,0,1.0,0,1.0,0,1.0
788,'99',17.97,0.0,550.0,-550.0,1.03278905,0,100.0,0.0,1.0,0.0,0.0,1.0,1,100.0,1500.0,3.0,1,1.0,0,1.0,0,1.0,0,1.0,0,1.0
788,'L1',2.54,14.87,14.869,14.867,1.03278905,0,100.0,0.0,1.0,0.0,0.0,1.0,1,100.0,2.545,2.543,1,1.0,0,1.0,0,1.0,0,1.0,0,1.0
789,'99',17.97,0.0,550.0,-550.0,1.03280442,0,100.0,0.0,1.0,0.0,0.0,1.0,1,100.0,1500.0,3.0,1,1.0,0,1.0,0,1.0,0,1.0,0,1.0
789,'L1',2.54,14.87,14.869,14.867,1.03280442,0,100.0,0.0,1.0,0.0,0.0,1.0,1,100.0,2.545,2.543,1,1.0,0,1.0,0,1.0,0,1.0,0,1.0
791,'1',7.91,0.0,111.052,-111.052,1.0366428,0,100.0,0.0,1.0,0.0,0.0,1.0,1,100.0,494.072,3.0,1,1.0,0,1.0,0,1.0,0,1.0,0,1.0
792,'99',103.57,0.0,550.0,-550.0,0.96866916,0,100.0,0.0,1.0,0.0,0.0,1.0,1,100.0,1740.687,87.034,1,1.0,0,1.0,0,1.0,0,1.0,0,1.0
792,'L4',422.11,-102.88,-102.881,-102.883,0.96866916,0,100.0,0.0,1.0,0.0,0.0,1.0,1,100.0,422.114,422.112,1,1.0,0,1.0,0,1.0,0,1.0,0,1.0
797,'L1',340.09,-11.75,-11.749,-11.751,1.00976985,0,100.0,0.0,1.0,0.0,0.0,1.0,1,100.0,340.095,340.093,1,1.0,0,1.0,0,1.0,0,1.0,0,1.0
800,'1',5.97,0.0,31.224,-31.224,1.02397189,0,100.0,0.0,1.0,0.0,0.0,1.0,1,100.0,100.368,5.018,1,1.0,0,1.0,0,1.0,0,1.0,0,1.0
801,'1',4.82,0.0,57.645,-57.645,1.03318228,0,100.0,0.0,1.0,0.0,0.0,1.0,1,100.0,185.294,3.0,1,1.0,0,1.0,0,1.0,0,1.0,0,1.0
805,'L1',11.06,-2.15,-2.155,-2.157,0.95174177,0,100.0,0.0,1.0,0.0,0.0,1.0,1,100.0,11.066,11.064,1,1.0,0,1.0,0,1.0,0,1.0,0,1.0
809,'99',58.82,0.0,550.0,-550.0,1.03262459,0,100.0,0.0,1.0,0.0,0.0,1.0,1,100.0,1500.0,44.267,1,1.0,0,1.0,0,1.0,0,1.0,0,1.0
816,'1',24.41,0.0,127.643,-127.643,0.99729312,0,100.0,0.0,1.0,0.0,0.0,1.0,0,100.0,410.294,20.515,1,1.0,0,1.0,0,1.0,0,1.0,0,1.0
816,'2',5.94,0.0,48.998,-48.998,0.99729312,0,100.0,0.0,1.0,0.0,0.0,1.0,1,100.0,217.993,3.8,1,1.0,0,1.0,0,1.0,0,1.0,0,1.0
816,'3',23.71,0.0,123.982,-123.982,0.99729312,0,100.0,0.0,1.0,0.0,0.0,1.0,0,100.0,398.529,19.926,1,1.0,0,1.0,0,1.0,0,1.0,0,1.0
816,'4',5.94,0.0,48.998,-48.998,0.99729312,0,100.0,0.0,1.0,0.0,0.0,1.0,1,100.0,217.993,3.8,1,1.0,0,1.0,0,1.0,0,1.0,0,1.0
...
0 / END OF GENERATOR DATA BEGIN BRANCH DATA
1,31,'1',0.0013,0.0099,0.02132,260.0,390.0,390.0,0.0,0.0,0.0,0.0,1,1,0.0,1,1.0,0,1.0,0,1.0,0,1.0
3,7,'1',0.07479,0.29968,0.0,260.0,390.0,390.0,0.0,0.0,0.0,0.0,1,1,0.0,1,1.0,0,1.0,0,1.0,0,1.0
3,10,'1',1.0352,0.9,0.0,260.0,390.0,390.0,0.0,0.0,0.0,0.0,1,1,0.0,1,1.0,0,1.0,0,1.0,0,1.0
3,28,'1',0.03978,0.26486,0.0,260.0,390.0,390.0,0.0,0.0,0.0,0.0,1,1,0.0,1,1.0,0,1.0,0,1.0,0,1.0
3,29,'1',1.0789,0.9,0.0,260.0,390.0,390.0,0.0,0.0,0.0,0.0,1,1,0.0,1,1.0,0,1.0,0,1.0,0,1.0
3,33,'1',0.13857,0.28969,0.0,260.0,390.0,390.0,0.0,0.0,0.0,0.0,1,1,0.0,1,1.0,0,1.0,0,1.0,0,1.0
3,44,'1',0.07496,0.30013,0.0,260.0,390.0,390.0,0.0,0.0,0.0,0.0,1,1,0.0,1,1.0,0,1.0,0,1.0,0,1.0
4,9,'1',0.39394,0.9,0.0,260.0,390.0,390.0,0.0,0.0,0.0,0.0,1,1,0.0,1,1.0,0,1.0,0,1.0,0,1.0
4,15,'1',0.0111,0.16469,0.0,260.0,390.0,390.0,0.0,0.0,0.0,0.0,1,1,0.0,1,1.0,0,1.0,0,1.0,0,1.0
4,33,'1',0.05555,0.36498,0.0,260.0,390.0,390.0,0.0,0.0,0.0,0.0,1,1,0.0,1,1.0,0,1.0,0,1.0,0,1.0
4,2602,'1',0.1111,0.72996,0.0,260.0,390.0,390.0,0.0,0.0,0.0,0.0,1,1,0.0,1,1.0,0,1.0,0,1.0,0,1.0
5,9,'1',0.29041,0.5542,0.0,260.0,390.0,390.0,0.0,0.0,0.0,0.0,1,1,0.0,1,1.0,0,1.0,0,1.0,0,1.0
5,47,'1',0.15248,0.33587,0.0,260.0,390.0,390.0,0.0,0.0,0.0,0.0,1,1,0.0,1,1.0,0,1.0,0,1.0,0,1.0
6,16,'1',0.0042,0.0253,0.0485,260.0,390.0,390.0,0.0,0.0,0.0,0.0,1,1,0.0,1,1.0,0,1.0,0,1.0,0,1.0
6,54,'1',0.0046,0.0315,0.059,420.23,630.34,630.34,0.0,0.0,0.0,0.0,1,1,0.0,1,1.0,0,1.0,0,1.0,0,1.0
7,28,'1',-0.0656,0.84873,0.0,260.0,390.0,390.0,0.0,0.0,0.0,0.0,1,1,0.0,1,1.0,0,1.0,0,1.0,0,1.0
7,33,'1',0.15749,0.77703,0.0,260.0,390.0,390.0,0.0,0.0,0.0,0.0,1,1,0.0,1,1.0,0,1.0,0,1.0,0,1.0
7,44,'1',0.0162,0.1815,0.0,260.0,390.0,390.0,0.0,0.0,0.0,0.0,1,1,0.0,1,1.0,0,1.0,0,1.0,0,1.0
8,10,'1',-0.0598,0.2664,0.0,260.0,390.0,390.0,0.0,0.0,0.0,0.0,1,1,0.0,1,1.0,0,1.0,0,1.0,0,1.0
8,29,'1',-0.0578,0.27321,0.0,260.0,390.0,390.0,0.0,0.0,0.0,0.0,1,1,0.0,1,1.0,0,1.0,0,1.0,0,1.0
8,34,'1',0.01979,0.0496,0.0,260.0,390.0,390.0,0.0,0.0,0.0,0.0,1,1,0.0,1,1.0,0,1.0,0,1.0,0,1.0
9,10,'1',0.46671,0.9,0.0,260.0,390.0,390.0,0.0,0.0,0.0,0.0,1,1,0.0,1,1.0,0,1.0,0,1.0,0,1.0
9,15,'1',0.39058,0.9,0.0,260.0,390.0,390.0,0.0,0.0,0.0,0.0,1,1,0.0,1,1.0,0,1.0,0,1.0,0,1.0
9,29,'1',0.50043,0.9,0.0,260.0,390.0,390.0,0.0,0.0,0.0,0.0,1,1,0.0,1,1.0,0,1.0,0,1.0,0,1.0
9,33,'1',0.98041,0.9,0.0,260.0,390.0,390.0,0.0,0.0,0.0,0.0,1,1,0.0,1,1.0,0,1.0,0,1.0,0,1.0
9,34,'1',0.54064,0.64634,0.0,260.0,390.0,390.0,0.0,0.0,0.0,0.0,1,1,0.0,1,1.0,0,1.0,0,1.0,0,1.0
9,47,'1',0.14495,0.27334,0.0,260.0,390.0,390.0,0.0,0.0,0.0,0.0,1,1,0.0,1,1.0,0,1.0,0,1.0,0,1.0
10,28,'1',0.48924,0.9,0.0,260.0,390.0,390.0,0.0,0.0,0.0,0.0,1,1,0.0,1,1.0,0,1.0,0,1.0,0,1.0
10,29,'1',0.0009,0.0003,0.0,260.0,390.0,390.0,0.0,0.0,0.0,0.0,1,1,0.0,1,1.0,0,1.0,0,1.0,0,1.0
10,33,'1',0.95414,0.9,0.0,260.0,390.0,390.0,0.0,0.0,0.0,0.0,1,1,0.0,1,1.0,0,1.0,0,1.0,0,1.0
10,34,'1',0.01526,0.02962,0.0,260.0,390.0,390.0,0.0,0.0,0.0,0.0,1,1,0.0,1,1.0,0,1.0,0,1.0,0,1.0
11,47,'1',0.16551,0.4737,0.0,260.0,390.0,390.0,0.0,0.0,0.0,0.0,1,1,0.0,1,1.0,0,1.0,0,1.0,0,1.0
11,49,'1',0.04304,0.18584,0.0,260.0,390.0,390.0,0.0,0.0,0.0,0.0,1,1,0.0,1,1.0,0,1.0,0,1.0,0,1.0
12,18,'1',0.0136,0.0903,0.1732,260.0,390.0,390.0,0.0,0.0,0.0,0.0,1,1,0.0,1,1.0,0,1.0,0,1.0,0,1.0
12,961,'1',0.0001,0.01,0.0,122.07,183.11,183.11,0.0,0.0,0.0,0.0,1,1,0.0,1,1.0,0,1.0,0,1.0,0,1.0
13,22,'1',0.0154,0.0991,0.17817,591.0,886.5,886.5,0.0,0.0,0.0,0.0,1,1,0.0,1,1.0,0,1.0,0,1.0,0,1.0
13,31,'1',0.0122,0.0943,0.18743,260.0,390.0,390.0,0.0,0.0,0.0,0.0,1,1,0.0,1,1.0,0,1.0,0,1.0,0,1.0
13,39,'1',0.0065,0.0503,0.10008,260.0,390.0,390.0,0.0,0.0,0.0,0.0,1,1,0.0,1,1.0,0,1.0,0,1.0,0,1.0
13,40,'1',0.0022,0.0262,0.05566,712.6,1068.9,1068.9,0.0,0.0,0.0,0.0,1,1,0.0,1,1.0,0,1.0,0,1.0,0,1.0
13,40,'2',0.0027,0.0268,0.05696,707.9,1061.85,1061.85,0.0,0.0,0.0,0.0,1,1,0.0,1,1.0,0,1.0,0,1.0,0,1.0
15,33,'1',0.05509,0.36182,0.0,260.0,390.0,390.0,0.0,0.0,0.0,0.0,1,1,0.0,1,1.0,0,1.0,0,1.0,0,1.0
16,1077,'1',0.0001,0.01,0.0,222.0,266.4,266.4,0.0,0.0,0.0,0.0,1,1,0.0,1,1.0,0,1.0,0,1.0,0,1.0
17,43,'1',0.0123,0.0822,0.15137,357.0,428.4,428.4,0.0,0.0,0.0,0.0,1,1,0.0,1,1.0,0,1.0,0,1.0,0,1.0
17,52,'1',0.0057,0.0382,0.07047,260.0,390.0,390.0,0.0,0.0,0.0,0.0,1,1,0.0,1,1.0,0,1.0,0,1.0,0,1.0
18,35,'1',0.00605,0.03642,0.06956,260.0,390.0,390.0,0.0,0.0,0.0,0.0,1,1,0.0,1,1.0,0,1.0,0,1.0,0,1.0
18,52,'1',0.00203,0.01191,0.02399,260.0,390.0,390.0,0.0,0.0,0.0,0.0,1,1,0.0,1,1.0,0,1.0,0,1.0,0,1.0
19,53,'1',0.00116,0.0314,2.6586,758.15,1137.22,1137.22,0.0,0.0,0.0,0.0,1,1,0.0,1,1.0,0,1.0,0,1.0,0,1.0
22,45,'1',0.0106,0.0684,0.13505,260.0,390.0,390.0,0.0,0.0,0.0,0.0,1,1,0.0,1,1.0,0,1.0,0,1.0,0,1.0
22,48,'1',0.0112,0.0727,0.14343,260.0,390.0,390.0,0.0,0.0,0.0,0.0,1,1,0.0,1,1.0,0,1.0,0,1.0,0,1.0
22,50,'1',0.00197,0.01283,0.02477,260.0,390.0,390.0,0.0,0.0,0.0,0.0,1,1,0.0,1,1.0,0,1.0,0,1.0,0,1.0
23,632,'1',0.0001,0.01,0.0,505.0,606.0,606.0,0.0,0.0,0.0,0.0,1,1,0.0,1,1.0,0,1.0,0,1.0,0,1.0
23,1964,'1',0.0002,0.02,0.0,505.0,606.0,606.0,0.0,0.0,0.0,0.0,0,1,0.0,1,1.0,0,1.0,0,1.0,0,1.0
24,36,'1',0.0045,0.0221,0.00642,260.0,390.0,390.0,0.0,0.0,0.0,0.0,1,1,0.0,1,1.0,0,1.0,0,1.0,0,1.0
26,45,'1',0.0034,0.0221,0.04362,260.0,390.0,390.0,0.0,0.0,0.0,0.0,1,1,0.0,1,1.0,0,1.0,0,1.0,0,1.0
27,49,'1',0.04064,0.1642,0.0,260.0,390.0,390.0,0.0,0.0,0.0,0.0,1,1,0.0,1,1.0,0,1.0,0,1.0,0,1.0
27,666,'1',0.0001,0.01,0.0,154.56,231.84,231.84,0.0,0.0,0.0,0.0,1,1,0.0,1,1.0,0,1.0,0,1.0,0,1.0
28,29,'1',0.523,0.9,0.0,260.0,390.0,390.0,0.0,0.0,0.0,0.0,1,1,0.0,1,1.0,0,1.0,0,1.0,0,1.0
28,33,'1',0.03257,0.26394,0.0,260.0,390.0,390.0,0.0,0.0,0.0,0.0,1,1,0.0,1,1.0,0,1.0,0,1.0,0,1.0
28,44,'1',-0.0656,0.85005,0.0,260.0,390.0,390.0,0.0,0.0,0.0,0.0,1,1,0.0,1,1.0,0,1.0,0,1.0,0,1.0
29,34,'1',0.01598,0.03011,0.0,260.0,390.0,390.0,0.0,0.0,0.0,0.0,1,1,0.0,1,1.0,0,1.0,0,1.0,0,1.0
30,32,'1',0.01265,0.06079,0.0289,260.0,390.0,390.0,0.0,0.0,0.0,0.0,1,1,0.0,1,1.0,0,1.0,0,1.0,0,1.0
30,41,'1',0.0239,0.1186,0.06562,260.0,390.0,390.0,0.0,0.0,0.0,0.0,1,1,0.0,1,1.0,0,1.0,0,1.0,0,1.0
31,43,'1',0.0001,0.001,0.00208,260.0,390.0,390.0,0.0,0.0,0.0,0.0,1,1,0.0,1,1.0,0,1.0,0,1.0,0,1.0
32,609,'1',0.0001,0.01,0.0,193.83,290.74,290.74,0.0,0.0,0.0,0.0,1,1,0.0,1,1.0,0,1.0,0,1.0,0,1.0
33,44,'1',0.15786,0.7782,0.0,260.0,390.0,390.0,0.0,0.0,0.0,0.0,1,1,0.0,1,1.0,0,1.0,0,1.0,0,1.0
33,2727,'1',0.1111,0.72996,0.0,260.0,390.0,390.0,0.0,0.0,0.0,0.0,0,1,0.0,1,1.0,0,1.0,0,1.0,0,1.0
35,42,'1',0.00421,0.0253,0.04874,260.0,390.0,390.0,0.0,0.0,0.0,0.0,1,1,0.0,1,1.0,0,1.0,0,1.0,0,1.0
37,38,'1',0.0044,0.034,0.06751,260.0,390.0,390.0,0.0,0.0,0.0,0.0,1,1,0.0,1,1.0,0,1.0,0,1.0,0,1.0
37,39,'1',0.0049,0.0375,0.07449,429.88,644.82,644.82,0.0,0.0,0.0,0.0,1,1,0.0,1,1.0,0,1.0,0,1.0,0,1.0
38,40,'1',0.0048,0.0569,0.12161,260.0,390.0,390.0,0.0,0.0,0.0,0.0,1,1,0.0,1,1.0,0,1.0,0,1.0,0,1.0
39,43,'1',0.0091,0.0698,0.13869,453.0,543.6,543.6,0.0,0.0,0.0,0.0,1,1,0.0,1,1.0,0,1.0,0,1.0,0,1.0
42,975,'1',0.0001,0.01,0.0,137.0,164.4,164.4,0.0,0.0,0.0,0.0,1,1,0.0,1,1.0,0,1.0,0,1.0,0,1.0
46,50,'1',0.0002,0.02,0.0,172.0,206.4,206.4,0.0,0.0,0.0,0.0,0,1,0.0,1,1.0,0,1.0,0,1.0,0,1.0
46,678,'1',0.0001,0.01,0.0,172.0,206.4,206.4,0.0,0.0,0.0,0.0,1,1,0.0,1,1.0,0,1.0,0,1.0,0,1.0
50,54,'1',0.01244,0.081,0.1561,260.0,390.0,390.0,0.0,0.0,0.0,0.0,1,1,0.0,1,1.0,0,1.0,0,1.0,0,1.0
51,204,'1',0.0001,0.01,0.0,83.7,125.55,125.55,0.0,0.0,0.0,0.0,1,1,0.0,1,1.0,0,1.0,0,1.0,0,1.0
56,58,'1',0.00033,0.00185,0.00134,154.0,182.0,182.0,0.0,0.0,0.0,0.0,1,1,0.0,1,1.0,0,1.0,0,1.0,0,1.0
56,63,'1',0.00351,0.01972,0.0013,154.0,182.0,182.0,0.0,0.0,0.0,0.0,1,1,0.0,1,1.0,0,1.0,0,1.0,0,1.0
58,67,'1',0.00251,0.00782,0.0022,154.0,182.0,182.0,0.0,0.0,0.0,0.0,1,1,0.0,1,1.0,0,1.0,0,1.0,0,1.0
59,62,'1',0.004,0.0117,0.0013,139.0,163.0,163.0,0.0,0.0,0.0,0.0,1,1,0.0,1,1.0,0,1.0,0,1.0,0,1.0
59,225,'1',0.0001,0.01,0.0,83.7,125.55,125.55,0.0,0.0,0.0,0.0,1,1,0.0,1,1.0,0,1.0,0,1.0,0,1.0
62,64,'1',0.0046,0.01505,0.00188,83.0,83.0,83.0,0.0,0.0,0.0,0.0,1,1,0.0,1,1.0,0,1.0,0,1.0,0,1.0
62,69,'1',0.0252,0.0825,0.0103,142.0,167.0,167.0,0.0,0.0,0.0,0.0,1,1,0.0,1,1.0,0,1.0,0,1.0,0,1.0
66,67,'1',0.0087,0.02647,0.00222,144.0,169.0,169.0,0.0,0.0,0.0,0.0,1,1,0.0,1,1.0,0,1.0,0,1.0,0,1.0
66,69,'1',0.0262,0.0857,0.0107,142.0,176.0,176.0,0.0,0.0,0.0,0.0,1,1,0.0,1,1.0,0,1.0,0,1.0,0,1.0
66,241,'1',0.0001,0.01,0.0,83.7,125.55,125.55,0.0,0.0,0.0,0.0,1,1,0.0,1,1.0,0,1.0,0,1.0,0,1.0
72,95,'1',0.0016,0.0179,0.29195,749.15,1123.72,1123.72,0.0,0.0,0.0,0.0,1,1,0.0,1,1.0,0,1.0,0,1.0,0,1.0
72,127,'1',0.0011,0.0122,0.2654,654.13,981.19,981.19,0.0,0.0,0.0,0.0,1,1,0.0,1,1.0,0,1.0,0,1.0,0,1.0
74,103,'1',0.0024,0.0113,0.00294,260.0,390.0,390.0,0.0,0.0,0.0,0.0,1,1,0.0,1,1.0,0,1.0,0,1.0,0,1.0
74,103,'2',-0.0148,0.50095,0.0,260.0,390.0,390.0,0.0,0.0,0.0,0.0,1,1,0.0,1,1.0,0,1.0,0,1.0,0,1.0
74,133,'1',0.0189,0.0877,0.02284,260.0,390.0,390.0,0.0,0.0,0.0,0.0,1,1,0.0,1,1.0,0,1.0,0,1.0,0,1.0
74,146,'1',0.018,0.1264,0.04014,260.0,390.0,390.0,0.0,0.0,0.0,0.0,1,1,0.0,1,1.0,0,1.0,0,1.0,0,1.0
75,87,'1',0.0018,0.0232,0.4064,685.32,1027.98,1027.98,0.0,0.0,0.0,0.0,1,1,0.0,1,1.0,0,1.0,0,1.0,0,1.0
75,143,'1',0.0013,0.0192,0.335,2010.0,2412.0,2412.0,0.0,0.0,0.0,0.0,1,1,0.0,1,1.0,0,1.0,0,1.0,0,1.0
75,1682,'1',0.0026,0.0384,0.335,2010.0,2412.0,2412.0,0.0,0.0,0.0,0.0,1,1,0.0,1,1.0,0,1.0,0,1.0,0,1.0
...